-- Generated by mif_gen Matlab script
-- FPGA SITE - https://fpgasite.blogspot.com

WIDTH=8;
DEPTH=132;

ADDRESS_RADIX=HEX;
DATA_RADIX=HEX;

CONTENT BEGIN;
    00  :  66;
    01  :  66;
    02  :  66;
    03  :  66;
    04  :  66;
    05  :  66;
    06  :  66;
    07  :  66;
    08  :  66;
    09  :  66;
    0A  :  66;
    0B  :  66;
    0C  :  66;
    0D  :  66;
    0E  :  66;
    0F  :  66;
    10  :  66;
    11  :  66;
    12  :  66;
    13  :  66;
    14  :  66;
    15  :  66;
    16  :  66;
    17  :  66;
    18  :  66;
    19  :  66;
    1A  :  66;
    1B  :  66;
    1C  :  66;
    1D  :  66;
    1E  :  66;
    1F  :  66;
    20  :  66;
    21  :  66;
    22  :  66;
    23  :  66;
    24  :  66;
    25  :  66;
    26  :  66;
    27  :  66;
    28  :  66;
    29  :  66;
    2A  :  66;
    2B  :  66;
    2C  :  66;
    2D  :  66;
    2E  :  66;
    2F  :  66;
    30  :  66;
    31  :  66;
    32  :  66;
    33  :  66;
    34  :  66;
    35  :  66;
    36  :  66;
    37  :  66;
    38  :  66;
    39  :  66;
    3A  :  66;
    3B  :  66;
    3C  :  66;
    3D  :  66;
    3E  :  66;
    3F  :  66;
    40  :  66;
    41  :  66;
    42  :  66;
    43  :  66;
    44  :  66;
    45  :  66;
    46  :  66;
    47  :  66;
    48  :  66;
    49  :  66;
    4A  :  66;
    4B  :  66;
    4C  :  66;
    4D  :  66;
    4E  :  66;
    4F  :  66;
    50  :  66;
    51  :  66;
    52  :  66;
    53  :  66;
    54  :  66;
    55  :  66;
    56  :  66;
    57  :  66;
    58  :  66;
    59  :  66;
    5A  :  66;
    5B  :  66;
    5C  :  66;
    5D  :  66;
    5E  :  66;
    5F  :  66;
    60  :  66;
    61  :  66;
    62  :  66;
    63  :  66;
    64  :  66;
    65  :  66;
    66  :  66;
    67  :  66;
    68  :  66;
    69  :  66;
    6A  :  66;
    6B  :  66;
    6C  :  66;
    6D  :  66;
    6E  :  66;
    6F  :  66;
    70  :  66;
    71  :  66;
    72  :  66;
    73  :  66;
    74  :  66;
    75  :  66;
    76  :  66;
    77  :  66;
    78  :  66;
    79  :  66;
    7A  :  66;
    7B  :  66;
    7C  :  66;
    7D  :  66;
    7E  :  66;
    7F  :  66;
    80  :  66;
    81  :  66;
    82  :  66;
    83  :  66;
END;
