-- Generated by mif_gen Matlab script
-- FPGA SITE - https://fpgasite.blogspot.com

WIDTH=8;
DEPTH=768;

ADDRESS_RADIX=HEX;
DATA_RADIX=HEX;

CONTENT BEGIN;
    00  :  F0;
    01  :  67;
    02  :  D3;
    03  :  7E;
    04  :  D4;
    05  :  1D;
    06  :  CC;
    07  :  A7;
    08  :  04;
    09  :  C3;
    0A  :  8B;
    0B  :  4F;
    0C  :  5D;
    0D  :  BA;
    0E  :  9B;
    0F  :  93;
    10  :  C3;
    11  :  55;
    12  :  A5;
    13  :  76;
    14  :  60;
    15  :  0A;
    16  :  3E;
    17  :  1E;
    18  :  DE;
    19  :  5C;
    1A  :  39;
    1B  :  6F;
    1C  :  F3;
    1D  :  77;
    1E  :  A7;
    1F  :  5C;
    20  :  7D;
    21  :  3B;
    22  :  16;
    23  :  79;
    24  :  D1;
    25  :  0C;
    26  :  F4;
    27  :  04;
    28  :  FE;
    29  :  12;
    2A  :  F3;
    2B  :  F1;
    2C  :  ED;
    2D  :  B1;
    2E  :  BC;
    2F  :  8A;
    30  :  D6;
    31  :  0F;
    32  :  55;
    33  :  F3;
    34  :  B6;
    35  :  DE;
    36  :  60;
    37  :  80;
    38  :  05;
    39  :  00;
    3A  :  38;
    3B  :  82;
    3C  :  DE;
    3D  :  99;
    3E  :  EA;
    3F  :  C1;
    40  :  43;
    41  :  C1;
    42  :  CF;
    43  :  D0;
    44  :  A5;
    45  :  9C;
    46  :  FA;
    47  :  58;
    48  :  80;
    49  :  59;
    4A  :  2F;
    4B  :  5C;
    4C  :  7B;
    4D  :  4B;
    4E  :  F2;
    4F  :  39;
    50  :  CE;
    51  :  A3;
    52  :  18;
    53  :  C9;
    54  :  76;
    55  :  8D;
    56  :  6A;
    57  :  65;
    58  :  CF;
    59  :  A3;
    5A  :  F8;
    5B  :  F6;
    5C  :  84;
    5D  :  11;
    5E  :  6D;
    5F  :  9D;
    60  :  E0;
    61  :  60;
    62  :  50;
    63  :  5C;
    64  :  66;
    65  :  D3;
    66  :  71;
    67  :  31;
    68  :  2C;
    69  :  F4;
    6A  :  7A;
    6B  :  E7;
    6C  :  F4;
    6D  :  90;
    6E  :  42;
    6F  :  F2;
    70  :  E8;
    71  :  F5;
    72  :  F2;
    73  :  1D;
    74  :  EB;
    75  :  A6;
    76  :  C1;
    77  :  56;
    78  :  07;
    79  :  5B;
    7A  :  E3;
    7B  :  3B;
    7C  :  1B;
    7D  :  3C;
    7E  :  EE;
    7F  :  DA;
    80  :  90;
    81  :  CB;
    82  :  DF;
    83  :  65;
    84  :  E7;
    85  :  ED;
    86  :  A0;
    87  :  8B;
    88  :  B1;
    89  :  72;
    8A  :  1E;
    8B  :  31;
    8C  :  8A;
    8D  :  FA;
    8E  :  2F;
    8F  :  77;
    90  :  1D;
    91  :  CE;
    92  :  63;
    93  :  D8;
    94  :  7A;
    95  :  17;
    96  :  74;
    97  :  89;
    98  :  75;
    99  :  58;
    9A  :  D8;
    9B  :  87;
    9C  :  D1;
    9D  :  96;
    9E  :  75;
    9F  :  92;
    A0  :  FA;
    A1  :  E7;
    A2  :  81;
    A3  :  04;
    A4  :  35;
    A5  :  D3;
    A6  :  68;
    A7  :  97;
    A8  :  9B;
    A9  :  F2;
    AA  :  A5;
    AB  :  90;
    AC  :  45;
    AD  :  1B;
    AE  :  E1;
    AF  :  13;
    B0  :  15;
    B1  :  AC;
    B2  :  CB;
    B3  :  73;
    B4  :  DE;
    B5  :  BF;
    B6  :  01;
    B7  :  93;
    B8  :  64;
    B9  :  65;
    BA  :  02;
    BB  :  F3;
    BC  :  97;
    BD  :  86;
    BE  :  4A;
    BF  :  79;
    C0  :  6B;
    C1  :  6F;
    C2  :  2E;
    C3  :  55;
    C4  :  CD;
    C5  :  A6;
    C6  :  80;
    C7  :  28;
    C8  :  5F;
    C9  :  E6;
    CA  :  80;
    CB  :  E7;
    CC  :  FE;
    CD  :  45;
    CE  :  8C;
    CF  :  F6;
    D0  :  C4;
    D1  :  9A;
    D2  :  4E;
    D3  :  25;
    D4  :  F8;
    D5  :  C8;
    D6  :  09;
    D7  :  85;
    D8  :  FC;
    D9  :  5F;
    DA  :  23;
    DB  :  B5;
    DC  :  94;
    DD  :  F7;
    DE  :  B9;
    DF  :  31;
    E0  :  E1;
    E1  :  FA;
    E2  :  66;
    E3  :  04;
    E4  :  CB;
    E5  :  9A;
    E6  :  EA;
    E7  :  5C;
    E8  :  2D;
    E9  :  E4;
    EA  :  F7;
    EB  :  BA;
    EC  :  96;
    ED  :  2F;
    EE  :  32;
    EF  :  9D;
    F0  :  77;
    F1  :  27;
    F2  :  95;
    F3  :  33;
    F4  :  21;
    F5  :  49;
    F6  :  38;
    F7  :  6A;
    F8  :  E1;
    F9  :  79;
    FA  :  AA;
    FB  :  26;
    FC  :  68;
    FD  :  06;
    FE  :  4A;
    FF  :  6D;
    100  :  C2;
    101  :  28;
    102  :  9B;
    103  :  33;
    104  :  B8;
    105  :  DC;
    106  :  CB;
    107  :  1D;
    108  :  9C;
    109  :  45;
    10A  :  EF;
    10B  :  C1;
    10C  :  19;
    10D  :  FA;
    10E  :  E0;
    10F  :  3D;
    110  :  36;
    111  :  36;
    112  :  60;
    113  :  8A;
    114  :  29;
    115  :  7C;
    116  :  BC;
    117  :  FE;
    118  :  A9;
    119  :  FF;
    11A  :  A9;
    11B  :  DB;
    11C  :  47;
    11D  :  F4;
    11E  :  32;
    11F  :  63;
    120  :  AC;
    121  :  47;
    122  :  28;
    123  :  E1;
    124  :  EB;
    125  :  9F;
    126  :  D2;
    127  :  A4;
    128  :  1E;
    129  :  E8;
    12A  :  C5;
    12B  :  98;
    12C  :  A3;
    12D  :  78;
    12E  :  AD;
    12F  :  41;
    130  :  9B;
    131  :  C8;
    132  :  FB;
    133  :  00;
    134  :  7F;
    135  :  50;
    136  :  DD;
    137  :  D7;
    138  :  64;
    139  :  E3;
    13A  :  97;
    13B  :  52;
    13C  :  24;
    13D  :  DB;
    13E  :  F0;
    13F  :  A7;
    140  :  2D;
    141  :  C3;
    142  :  64;
    143  :  D3;
    144  :  6D;
    145  :  10;
    146  :  F3;
    147  :  84;
    148  :  9D;
    149  :  71;
    14A  :  2E;
    14B  :  5F;
    14C  :  E2;
    14D  :  DF;
    14E  :  65;
    14F  :  29;
    150  :  FC;
    151  :  9A;
    152  :  06;
    153  :  01;
    154  :  F7;
    155  :  5A;
    156  :  0F;
    157  :  FD;
    158  :  71;
    159  :  9C;
    15A  :  8A;
    15B  :  F4;
    15C  :  44;
    15D  :  E7;
    15E  :  1C;
    15F  :  3F;
    160  :  A9;
    161  :  6B;
    162  :  05;
    163  :  5D;
    164  :  C8;
    165  :  DF;
    166  :  AD;
    167  :  1B;
    168  :  38;
    169  :  5B;
    16A  :  5C;
    16B  :  9C;
    16C  :  C6;
    16D  :  CB;
    16E  :  13;
    16F  :  41;
    170  :  7D;
    171  :  BB;
    172  :  31;
    173  :  55;
    174  :  90;
    175  :  59;
    176  :  74;
    177  :  7B;
    178  :  1B;
    179  :  8C;
    17A  :  37;
    17B  :  56;
    17C  :  8C;
    17D  :  69;
    17E  :  C1;
    17F  :  B8;
    180  :  5C;
    181  :  AC;
    182  :  31;
    183  :  F4;
    184  :  A5;
    185  :  62;
    186  :  29;
    187  :  4E;
    188  :  67;
    189  :  29;
    18A  :  61;
    18B  :  8F;
    18C  :  A0;
    18D  :  C0;
    18E  :  8F;
    18F  :  DA;
    190  :  18;
    191  :  CE;
    192  :  C9;
    193  :  F0;
    194  :  8F;
    195  :  D9;
    196  :  B0;
    197  :  10;
    198  :  29;
    199  :  2F;
    19A  :  F6;
    19B  :  BE;
    19C  :  BA;
    19D  :  B9;
    19E  :  EB;
    19F  :  50;
    1A0  :  83;
    1A1  :  04;
    1A2  :  D3;
    1A3  :  92;
    1A4  :  86;
    1A5  :  17;
    1A6  :  26;
    1A7  :  36;
    1A8  :  B3;
    1A9  :  F1;
    1AA  :  AB;
    1AB  :  91;
    1AC  :  4C;
    1AD  :  54;
    1AE  :  7F;
    1AF  :  9A;
    1B0  :  15;
    1B1  :  7E;
    1B2  :  45;
    1B3  :  C8;
    1B4  :  63;
    1B5  :  39;
    1B6  :  1C;
    1B7  :  1F;
    1B8  :  E0;
    1B9  :  C8;
    1BA  :  6D;
    1BB  :  1F;
    1BC  :  0A;
    1BD  :  55;
    1BE  :  44;
    1BF  :  DA;
    1C0  :  6C;
    1C1  :  2E;
    1C2  :  C6;
    1C3  :  67;
    1C4  :  B6;
    1C5  :  DE;
    1C6  :  B2;
    1C7  :  47;
    1C8  :  5B;
    1C9  :  92;
    1CA  :  EB;
    1CB  :  64;
    1CC  :  6C;
    1CD  :  53;
    1CE  :  5F;
    1CF  :  70;
    1D0  :  37;
    1D1  :  D2;
    1D2  :  3F;
    1D3  :  65;
    1D4  :  59;
    1D5  :  2D;
    1D6  :  F8;
    1D7  :  3C;
    1D8  :  5D;
    1D9  :  34;
    1DA  :  14;
    1DB  :  9E;
    1DC  :  A6;
    1DD  :  4F;
    1DE  :  FA;
    1DF  :  26;
    1E0  :  1E;
    1E1  :  B1;
    1E2  :  05;
    1E3  :  4E;
    1E4  :  80;
    1E5  :  37;
    1E6  :  33;
    1E7  :  B1;
    1E8  :  32;
    1E9  :  BB;
    1EA  :  B5;
    1EB  :  13;
    1EC  :  6A;
    1ED  :  59;
    1EE  :  44;
    1EF  :  E4;
    1F0  :  D4;
    1F1  :  92;
    1F2  :  06;
    1F3  :  7A;
    1F4  :  2D;
    1F5  :  CD;
    1F6  :  58;
    1F7  :  F6;
    1F8  :  8E;
    1F9  :  12;
    1FA  :  7E;
    1FB  :  78;
    1FC  :  5D;
    1FD  :  35;
    1FE  :  1F;
    1FF  :  56;
    200  :  9C;
    201  :  37;
    202  :  CB;
    203  :  48;
    204  :  6F;
    205  :  7E;
    206  :  0F;
    207  :  00;
    208  :  29;
    209  :  FC;
    20A  :  A3;
    20B  :  F8;
    20C  :  D3;
    20D  :  F2;
    20E  :  3F;
    20F  :  47;
    210  :  66;
    211  :  2D;
    212  :  E0;
    213  :  58;
    214  :  A7;
    215  :  31;
    216  :  00;
    217  :  A6;
    218  :  3B;
    219  :  5D;
    21A  :  71;
    21B  :  A3;
    21C  :  84;
    21D  :  BB;
    21E  :  AD;
    21F  :  5C;
    220  :  CD;
    221  :  C5;
    222  :  38;
    223  :  FC;
    224  :  C1;
    225  :  20;
    226  :  BF;
    227  :  41;
    228  :  71;
    229  :  1D;
    22A  :  2C;
    22B  :  2A;
    22C  :  09;
    22D  :  0B;
    22E  :  23;
    22F  :  48;
    230  :  A5;
    231  :  E2;
    232  :  9C;
    233  :  7D;
    234  :  EB;
    235  :  5C;
    236  :  D6;
    237  :  42;
    238  :  85;
    239  :  2C;
    23A  :  4D;
    23B  :  73;
    23C  :  01;
    23D  :  D3;
    23E  :  01;
    23F  :  AC;
    240  :  5C;
    241  :  4D;
    242  :  39;
    243  :  A5;
    244  :  0F;
    245  :  C2;
    246  :  B4;
    247  :  96;
    248  :  DE;
    249  :  B6;
    24A  :  73;
    24B  :  70;
    24C  :  4D;
    24D  :  C0;
    24E  :  93;
    24F  :  58;
    250  :  35;
    251  :  D1;
    252  :  1E;
    253  :  58;
    254  :  D6;
    255  :  73;
    256  :  60;
    257  :  B6;
    258  :  A7;
    259  :  A3;
    25A  :  E2;
    25B  :  87;
    25C  :  E0;
    25D  :  21;
    25E  :  22;
    25F  :  5B;
    260  :  E7;
    261  :  5D;
    262  :  8D;
    263  :  09;
    264  :  AC;
    265  :  C7;
    266  :  22;
    267  :  77;
    268  :  58;
    269  :  2F;
    26A  :  7E;
    26B  :  55;
    26C  :  49;
    26D  :  78;
    26E  :  80;
    26F  :  C1;
    270  :  A3;
    271  :  84;
    272  :  8D;
    273  :  B4;
    274  :  BD;
    275  :  83;
    276  :  48;
    277  :  59;
    278  :  6A;
    279  :  BE;
    27A  :  26;
    27B  :  80;
    27C  :  DF;
    27D  :  64;
    27E  :  85;
    27F  :  AB;
    280  :  3D;
    281  :  5E;
    282  :  E9;
    283  :  FF;
    284  :  18;
    285  :  7C;
    286  :  63;
    287  :  B6;
    288  :  29;
    289  :  FA;
    28A  :  3F;
    28B  :  D6;
    28C  :  EE;
    28D  :  05;
    28E  :  7D;
    28F  :  63;
    290  :  81;
    291  :  66;
    292  :  F6;
    293  :  7C;
    294  :  31;
    295  :  58;
    296  :  17;
    297  :  F7;
    298  :  BD;
    299  :  A6;
    29A  :  80;
    29B  :  61;
    29C  :  5F;
    29D  :  A0;
    29E  :  1D;
    29F  :  D7;
    2A0  :  70;
    2A1  :  37;
    2A2  :  5B;
    2A3  :  05;
    2A4  :  70;
    2A5  :  04;
    2A6  :  C0;
    2A7  :  70;
    2A8  :  48;
    2A9  :  6B;
    2AA  :  21;
    2AB  :  D9;
    2AC  :  AD;
    2AD  :  3C;
    2AE  :  31;
    2AF  :  5C;
    2B0  :  DF;
    2B1  :  25;
    2B2  :  65;
    2B3  :  BE;
    2B4  :  FD;
    2B5  :  0B;
    2B6  :  C8;
    2B7  :  A1;
    2B8  :  A7;
    2B9  :  79;
    2BA  :  1F;
    2BB  :  9F;
    2BC  :  2C;
    2BD  :  F5;
    2BE  :  D9;
    2BF  :  F6;
    2C0  :  4E;
    2C1  :  AC;
    2C2  :  BF;
    2C3  :  2B;
    2C4  :  0C;
    2C5  :  AA;
    2C6  :  6B;
    2C7  :  B0;
    2C8  :  B5;
    2C9  :  51;
    2CA  :  E9;
    2CB  :  59;
    2CC  :  07;
    2CD  :  26;
    2CE  :  B6;
    2CF  :  1A;
    2D0  :  9D;
    2D1  :  6C;
    2D2  :  73;
    2D3  :  EF;
    2D4  :  C3;
    2D5  :  40;
    2D6  :  F2;
    2D7  :  D6;
    2D8  :  7F;
    2D9  :  8E;
    2DA  :  AD;
    2DB  :  23;
    2DC  :  90;
    2DD  :  C2;
    2DE  :  9B;
    2DF  :  80;
    2E0  :  B7;
    2E1  :  04;
    2E2  :  22;
    2E3  :  D7;
    2E4  :  1D;
    2E5  :  AD;
    2E6  :  96;
    2E7  :  F8;
    2E8  :  07;
    2E9  :  6A;
    2EA  :  A9;
    2EB  :  78;
    2EC  :  D8;
    2ED  :  D7;
    2EE  :  A4;
    2EF  :  A6;
    2F0  :  27;
    2F1  :  7A;
    2F2  :  0C;
    2F3  :  0E;
    2F4  :  38;
    2F5  :  C7;
    2F6  :  88;
    2F7  :  DD;
    2F8  :  88;
    2F9  :  50;
    2FA  :  D5;
    2FB  :  45;
    2FC  :  23;
    2FD  :  29;
    2FE  :  BE;
    2FF  :  0A;
END;
