-- Generated by mif_gen Matlab script
-- FPGA SITE - https://fpgasite.blogspot.com

WIDTH=8;
DEPTH=768;

ADDRESS_RADIX=HEX;
DATA_RADIX=HEX;

CONTENT BEGIN
    00  :  55
    01  :  55
    02  :  55
    03  :  55
    04  :  55
    05  :  55
    06  :  55
    07  :  55
    08  :  55
    09  :  55
    0A  :  55
    0B  :  55
    0C  :  55
    0D  :  55
    0E  :  55
    0F  :  55
    10  :  55
    11  :  55
    12  :  55
    13  :  55
    14  :  55
    15  :  55
    16  :  55
    17  :  55
    18  :  55
    19  :  55
    1A  :  55
    1B  :  55
    1C  :  55
    1D  :  55
    1E  :  55
    1F  :  55
    20  :  55
    21  :  55
    22  :  55
    23  :  55
    24  :  55
    25  :  55
    26  :  55
    27  :  55
    28  :  55
    29  :  55
    2A  :  55
    2B  :  55
    2C  :  55
    2D  :  55
    2E  :  55
    2F  :  55
    30  :  55
    31  :  55
    32  :  55
    33  :  55
    34  :  55
    35  :  55
    36  :  55
    37  :  55
    38  :  55
    39  :  55
    3A  :  55
    3B  :  55
    3C  :  55
    3D  :  55
    3E  :  55
    3F  :  55
    40  :  55
    41  :  55
    42  :  55
    43  :  55
    44  :  55
    45  :  55
    46  :  55
    47  :  55
    48  :  55
    49  :  55
    4A  :  55
    4B  :  55
    4C  :  55
    4D  :  55
    4E  :  55
    4F  :  55
    50  :  55
    51  :  55
    52  :  55
    53  :  55
    54  :  55
    55  :  55
    56  :  55
    57  :  55
    58  :  55
    59  :  55
    5A  :  55
    5B  :  55
    5C  :  55
    5D  :  55
    5E  :  55
    5F  :  55
    60  :  55
    61  :  55
    62  :  55
    63  :  55
    64  :  55
    65  :  55
    66  :  55
    67  :  55
    68  :  55
    69  :  55
    6A  :  55
    6B  :  55
    6C  :  55
    6D  :  55
    6E  :  55
    6F  :  55
    70  :  55
    71  :  55
    72  :  55
    73  :  55
    74  :  55
    75  :  55
    76  :  55
    77  :  55
    78  :  55
    79  :  55
    7A  :  55
    7B  :  55
    7C  :  55
    7D  :  55
    7E  :  55
    7F  :  55
    80  :  55
    81  :  55
    82  :  55
    83  :  55
    84  :  55
    85  :  55
    86  :  55
    87  :  55
    88  :  55
    89  :  55
    8A  :  55
    8B  :  55
    8C  :  55
    8D  :  55
    8E  :  55
    8F  :  55
    90  :  55
    91  :  55
    92  :  55
    93  :  55
    94  :  55
    95  :  55
    96  :  55
    97  :  55
    98  :  55
    99  :  55
    9A  :  55
    9B  :  55
    9C  :  55
    9D  :  55
    9E  :  55
    9F  :  55
    A0  :  55
    A1  :  55
    A2  :  55
    A3  :  55
    A4  :  55
    A5  :  55
    A6  :  55
    A7  :  55
    A8  :  55
    A9  :  55
    AA  :  55
    AB  :  55
    AC  :  55
    AD  :  55
    AE  :  55
    AF  :  55
    B0  :  55
    B1  :  55
    B2  :  55
    B3  :  55
    B4  :  55
    B5  :  55
    B6  :  55
    B7  :  55
    B8  :  55
    B9  :  55
    BA  :  55
    BB  :  55
    BC  :  55
    BD  :  55
    BE  :  55
    BF  :  55
    C0  :  55
    C1  :  55
    C2  :  55
    C3  :  55
    C4  :  55
    C5  :  55
    C6  :  55
    C7  :  55
    C8  :  55
    C9  :  55
    CA  :  55
    CB  :  55
    CC  :  55
    CD  :  55
    CE  :  55
    CF  :  55
    D0  :  55
    D1  :  55
    D2  :  55
    D3  :  55
    D4  :  55
    D5  :  55
    D6  :  55
    D7  :  55
    D8  :  55
    D9  :  55
    DA  :  55
    DB  :  55
    DC  :  55
    DD  :  55
    DE  :  55
    DF  :  55
    E0  :  55
    E1  :  55
    E2  :  55
    E3  :  55
    E4  :  55
    E5  :  55
    E6  :  55
    E7  :  55
    E8  :  55
    E9  :  55
    EA  :  55
    EB  :  55
    EC  :  55
    ED  :  55
    EE  :  55
    EF  :  55
    F0  :  55
    F1  :  55
    F2  :  55
    F3  :  55
    F4  :  55
    F5  :  55
    F6  :  55
    F7  :  55
    F8  :  55
    F9  :  55
    FA  :  55
    FB  :  55
    FC  :  55
    FD  :  55
    FE  :  55
    FF  :  55
    100  :  55
    101  :  55
    102  :  55
    103  :  55
    104  :  55
    105  :  55
    106  :  55
    107  :  55
    108  :  55
    109  :  55
    10A  :  55
    10B  :  55
    10C  :  55
    10D  :  55
    10E  :  55
    10F  :  55
    110  :  55
    111  :  55
    112  :  55
    113  :  55
    114  :  55
    115  :  55
    116  :  55
    117  :  55
    118  :  55
    119  :  55
    11A  :  55
    11B  :  55
    11C  :  55
    11D  :  55
    11E  :  55
    11F  :  55
    120  :  55
    121  :  55
    122  :  55
    123  :  55
    124  :  55
    125  :  55
    126  :  55
    127  :  55
    128  :  55
    129  :  55
    12A  :  55
    12B  :  55
    12C  :  55
    12D  :  55
    12E  :  55
    12F  :  55
    130  :  55
    131  :  55
    132  :  55
    133  :  55
    134  :  55
    135  :  55
    136  :  55
    137  :  55
    138  :  55
    139  :  55
    13A  :  55
    13B  :  55
    13C  :  55
    13D  :  55
    13E  :  55
    13F  :  55
    140  :  55
    141  :  55
    142  :  55
    143  :  55
    144  :  55
    145  :  55
    146  :  55
    147  :  55
    148  :  55
    149  :  55
    14A  :  55
    14B  :  55
    14C  :  55
    14D  :  55
    14E  :  55
    14F  :  55
    150  :  55
    151  :  55
    152  :  55
    153  :  55
    154  :  55
    155  :  55
    156  :  55
    157  :  55
    158  :  55
    159  :  55
    15A  :  55
    15B  :  55
    15C  :  55
    15D  :  55
    15E  :  55
    15F  :  55
    160  :  55
    161  :  55
    162  :  55
    163  :  55
    164  :  55
    165  :  55
    166  :  55
    167  :  55
    168  :  55
    169  :  55
    16A  :  55
    16B  :  55
    16C  :  55
    16D  :  55
    16E  :  55
    16F  :  55
    170  :  55
    171  :  55
    172  :  55
    173  :  55
    174  :  55
    175  :  55
    176  :  55
    177  :  55
    178  :  55
    179  :  55
    17A  :  55
    17B  :  55
    17C  :  55
    17D  :  55
    17E  :  55
    17F  :  55
    180  :  55
    181  :  55
    182  :  55
    183  :  55
    184  :  55
    185  :  55
    186  :  55
    187  :  55
    188  :  55
    189  :  55
    18A  :  55
    18B  :  55
    18C  :  55
    18D  :  55
    18E  :  55
    18F  :  55
    190  :  55
    191  :  55
    192  :  55
    193  :  55
    194  :  55
    195  :  55
    196  :  55
    197  :  55
    198  :  55
    199  :  55
    19A  :  55
    19B  :  55
    19C  :  55
    19D  :  55
    19E  :  55
    19F  :  55
    1A0  :  55
    1A1  :  55
    1A2  :  55
    1A3  :  55
    1A4  :  55
    1A5  :  55
    1A6  :  55
    1A7  :  55
    1A8  :  55
    1A9  :  55
    1AA  :  55
    1AB  :  55
    1AC  :  55
    1AD  :  55
    1AE  :  55
    1AF  :  55
    1B0  :  55
    1B1  :  55
    1B2  :  55
    1B3  :  55
    1B4  :  55
    1B5  :  55
    1B6  :  55
    1B7  :  55
    1B8  :  55
    1B9  :  55
    1BA  :  55
    1BB  :  55
    1BC  :  55
    1BD  :  55
    1BE  :  55
    1BF  :  55
    1C0  :  55
    1C1  :  55
    1C2  :  55
    1C3  :  55
    1C4  :  55
    1C5  :  55
    1C6  :  55
    1C7  :  55
    1C8  :  55
    1C9  :  55
    1CA  :  55
    1CB  :  55
    1CC  :  55
    1CD  :  55
    1CE  :  55
    1CF  :  55
    1D0  :  55
    1D1  :  55
    1D2  :  55
    1D3  :  55
    1D4  :  55
    1D5  :  55
    1D6  :  55
    1D7  :  55
    1D8  :  55
    1D9  :  55
    1DA  :  55
    1DB  :  55
    1DC  :  55
    1DD  :  55
    1DE  :  55
    1DF  :  55
    1E0  :  55
    1E1  :  55
    1E2  :  55
    1E3  :  55
    1E4  :  55
    1E5  :  55
    1E6  :  55
    1E7  :  55
    1E8  :  55
    1E9  :  55
    1EA  :  55
    1EB  :  55
    1EC  :  55
    1ED  :  55
    1EE  :  55
    1EF  :  55
    1F0  :  55
    1F1  :  55
    1F2  :  55
    1F3  :  55
    1F4  :  55
    1F5  :  55
    1F6  :  55
    1F7  :  55
    1F8  :  55
    1F9  :  55
    1FA  :  55
    1FB  :  55
    1FC  :  55
    1FD  :  55
    1FE  :  55
    1FF  :  55
    200  :  55
    201  :  55
    202  :  55
    203  :  55
    204  :  55
    205  :  55
    206  :  55
    207  :  55
    208  :  55
    209  :  55
    20A  :  55
    20B  :  55
    20C  :  55
    20D  :  55
    20E  :  55
    20F  :  55
    210  :  55
    211  :  55
    212  :  55
    213  :  55
    214  :  55
    215  :  55
    216  :  55
    217  :  55
    218  :  55
    219  :  55
    21A  :  55
    21B  :  55
    21C  :  55
    21D  :  55
    21E  :  55
    21F  :  55
    220  :  55
    221  :  55
    222  :  55
    223  :  55
    224  :  55
    225  :  55
    226  :  55
    227  :  55
    228  :  55
    229  :  55
    22A  :  55
    22B  :  55
    22C  :  55
    22D  :  55
    22E  :  55
    22F  :  55
    230  :  55
    231  :  55
    232  :  55
    233  :  55
    234  :  55
    235  :  55
    236  :  55
    237  :  55
    238  :  55
    239  :  55
    23A  :  55
    23B  :  55
    23C  :  55
    23D  :  55
    23E  :  55
    23F  :  55
    240  :  55
    241  :  55
    242  :  55
    243  :  55
    244  :  55
    245  :  55
    246  :  55
    247  :  55
    248  :  55
    249  :  55
    24A  :  55
    24B  :  55
    24C  :  55
    24D  :  55
    24E  :  55
    24F  :  55
    250  :  55
    251  :  55
    252  :  55
    253  :  55
    254  :  55
    255  :  55
    256  :  55
    257  :  55
    258  :  55
    259  :  55
    25A  :  55
    25B  :  55
    25C  :  55
    25D  :  55
    25E  :  55
    25F  :  55
    260  :  55
    261  :  55
    262  :  55
    263  :  55
    264  :  55
    265  :  55
    266  :  55
    267  :  55
    268  :  55
    269  :  55
    26A  :  55
    26B  :  55
    26C  :  55
    26D  :  55
    26E  :  55
    26F  :  55
    270  :  55
    271  :  55
    272  :  55
    273  :  55
    274  :  55
    275  :  55
    276  :  55
    277  :  55
    278  :  55
    279  :  55
    27A  :  55
    27B  :  55
    27C  :  55
    27D  :  55
    27E  :  55
    27F  :  55
    280  :  55
    281  :  55
    282  :  55
    283  :  55
    284  :  55
    285  :  55
    286  :  55
    287  :  55
    288  :  55
    289  :  55
    28A  :  55
    28B  :  55
    28C  :  55
    28D  :  55
    28E  :  55
    28F  :  55
    290  :  55
    291  :  55
    292  :  55
    293  :  55
    294  :  55
    295  :  55
    296  :  55
    297  :  55
    298  :  55
    299  :  55
    29A  :  55
    29B  :  55
    29C  :  55
    29D  :  55
    29E  :  55
    29F  :  55
    2A0  :  55
    2A1  :  55
    2A2  :  55
    2A3  :  55
    2A4  :  55
    2A5  :  55
    2A6  :  55
    2A7  :  55
    2A8  :  55
    2A9  :  55
    2AA  :  55
    2AB  :  55
    2AC  :  55
    2AD  :  55
    2AE  :  55
    2AF  :  55
    2B0  :  55
    2B1  :  55
    2B2  :  55
    2B3  :  55
    2B4  :  55
    2B5  :  55
    2B6  :  55
    2B7  :  55
    2B8  :  55
    2B9  :  55
    2BA  :  55
    2BB  :  55
    2BC  :  55
    2BD  :  55
    2BE  :  55
    2BF  :  55
    2C0  :  55
    2C1  :  55
    2C2  :  55
    2C3  :  55
    2C4  :  55
    2C5  :  55
    2C6  :  55
    2C7  :  55
    2C8  :  55
    2C9  :  55
    2CA  :  55
    2CB  :  55
    2CC  :  55
    2CD  :  55
    2CE  :  55
    2CF  :  55
    2D0  :  55
    2D1  :  55
    2D2  :  55
    2D3  :  55
    2D4  :  55
    2D5  :  55
    2D6  :  55
    2D7  :  55
    2D8  :  55
    2D9  :  55
    2DA  :  55
    2DB  :  55
    2DC  :  55
    2DD  :  55
    2DE  :  55
    2DF  :  55
    2E0  :  55
    2E1  :  55
    2E2  :  55
    2E3  :  55
    2E4  :  55
    2E5  :  55
    2E6  :  55
    2E7  :  55
    2E8  :  55
    2E9  :  55
    2EA  :  55
    2EB  :  55
    2EC  :  55
    2ED  :  55
    2EE  :  55
    2EF  :  55
    2F0  :  55
    2F1  :  55
    2F2  :  55
    2F3  :  55
    2F4  :  55
    2F5  :  55
    2F6  :  55
    2F7  :  55
    2F8  :  55
    2F9  :  55
    2FA  :  55
    2FB  :  55
    2FC  :  55
    2FD  :  55
    2FE  :  55
    2FF  :  54
END;
