-- Generated by mif_gen Matlab script
-- FPGA SITE - https://fpgasite.blogspot.com

WIDTH=8;
DEPTH=132;

ADDRESS_RADIX=HEX;
DATA_RADIX=HEX;

CONTENT BEGIN;
    00  :  D9;
    01  :  DA;
    02  :  7B;
    03  :  EA;
    04  :  1A;
    05  :  31;
    06  :  D8;
    07  :  AB;
    08  :  E2;
    09  :  A2;
    0A  :  7B;
    0B  :  4E;
    0C  :  85;
    0D  :  5C;
    0E  :  5C;
    0F  :  5C;
    10  :  50;
    11  :  ED;
    12  :  00;
    13  :  C4;
    14  :  83;
    15  :  88;
    16  :  EA;
    17  :  9B;
    18  :  0F;
    19  :  B7;
    1A  :  C2;
    1B  :  04;
    1C  :  C2;
    1D  :  C1;
    1E  :  2D;
    1F  :  39;
    20  :  97;
    21  :  15;
    22  :  7A;
    23  :  6F;
    24  :  C8;
    25  :  E4;
    26  :  BB;
    27  :  E4;
    28  :  32;
    29  :  C4;
    2A  :  0D;
    2B  :  35;
    2C  :  F2;
    2D  :  71;
    2E  :  60;
    2F  :  92;
    30  :  EB;
    31  :  A0;
    32  :  2E;
    33  :  37;
    34  :  98;
    35  :  17;
    36  :  D6;
    37  :  36;
    38  :  A1;
    39  :  44;
    3A  :  55;
    3B  :  1D;
    3C  :  F4;
    3D  :  9A;
    3E  :  DE;
    3F  :  37;
    40  :  F0;
    41  :  1F;
    42  :  2E;
    43  :  72;
    44  :  4A;
    45  :  C0;
    46  :  AB;
    47  :  35;
    48  :  BE;
    49  :  3A;
    4A  :  20;
    4B  :  FF;
    4C  :  7A;
    4D  :  7D;
    4E  :  7F;
    4F  :  CA;
    50  :  D0;
    51  :  05;
    52  :  A3;
    53  :  32;
    54  :  1B;
    55  :  BF;
    56  :  08;
    57  :  5C;
    58  :  2B;
    59  :  C6;
    5A  :  11;
    5B  :  AE;
    5C  :  88;
    5D  :  20;
    5E  :  83;
    5F  :  9D;
    60  :  27;
    61  :  EC;
    62  :  B2;
    63  :  E3;
    64  :  A5;
    65  :  EE;
    66  :  38;
    67  :  94;
    68  :  88;
    69  :  5B;
    6A  :  52;
    6B  :  89;
    6C  :  30;
    6D  :  74;
    6E  :  00;
    6F  :  E3;
    70  :  98;
    71  :  54;
    72  :  6B;
    73  :  83;
    74  :  03;
    75  :  9E;
    76  :  89;
    77  :  EE;
    78  :  D4;
    79  :  1D;
    7A  :  C9;
    7B  :  E5;
    7C  :  F9;
    7D  :  AC;
    7E  :  17;
    7F  :  51;
    80  :  2A;
    81  :  F7;
    82  :  0D;
    83  :  6A;
END;
