-- Generated by mif_gen Matlab script
-- FPGA SITE - https://fpgasite.blogspot.com

WIDTH=8;
DEPTH=132;

ADDRESS_RADIX=HEX;
DATA_RADIX=HEX;

CONTENT BEGIN;
    00  :  A6;
    01  :  AE;
    02  :  B3;
    03  :  C0;
    04  :  F9;
    05  :  2A;
    06  :  C6;
    07  :  EB;
    08  :  14;
    09  :  F2;
    0A  :  B2;
    0B  :  24;
    0C  :  39;
    0D  :  0A;
    0E  :  38;
    0F  :  2D;
    10  :  1D;
    11  :  73;
    12  :  12;
    13  :  73;
    14  :  00;
    15  :  4C;
    16  :  26;
    17  :  F4;
    18  :  1A;
    19  :  5C;
    1A  :  AD;
    1B  :  C9;
    1C  :  E3;
    1D  :  E4;
    1E  :  88;
    1F  :  83;
    20  :  EF;
    21  :  12;
    22  :  D9;
    23  :  28;
    24  :  55;
    25  :  73;
    26  :  1B;
    27  :  09;
    28  :  BA;
    29  :  81;
    2A  :  D4;
    2B  :  B8;
    2C  :  FE;
    2D  :  F8;
    2E  :  16;
    2F  :  B6;
    30  :  AD;
    31  :  69;
    32  :  62;
    33  :  B2;
    34  :  EF;
    35  :  E1;
    36  :  08;
    37  :  5B;
    38  :  52;
    39  :  0F;
    3A  :  55;
    3B  :  0A;
    3C  :  9F;
    3D  :  A4;
    3E  :  8C;
    3F  :  47;
    40  :  1F;
    41  :  71;
    42  :  66;
    43  :  68;
    44  :  61;
    45  :  76;
    46  :  D9;
    47  :  E3;
    48  :  44;
    49  :  BF;
    4A  :  75;
    4B  :  2E;
    4C  :  AA;
    4D  :  34;
    4E  :  AF;
    4F  :  2B;
    50  :  3D;
    51  :  59;
    52  :  3F;
    53  :  58;
    54  :  9C;
    55  :  78;
    56  :  19;
    57  :  6E;
    58  :  DC;
    59  :  30;
    5A  :  14;
    5B  :  B7;
    5C  :  5B;
    5D  :  18;
    5E  :  E7;
    5F  :  7A;
    60  :  08;
    61  :  58;
    62  :  A8;
    63  :  F6;
    64  :  84;
    65  :  F1;
    66  :  BB;
    67  :  F1;
    68  :  47;
    69  :  1E;
    6A  :  C6;
    6B  :  7C;
    6C  :  D5;
    6D  :  9F;
    6E  :  D7;
    6F  :  1E;
    70  :  27;
    71  :  DB;
    72  :  53;
    73  :  F3;
    74  :  6D;
    75  :  6F;
    76  :  1A;
    77  :  90;
    78  :  FA;
    79  :  42;
    7A  :  BA;
    7B  :  00;
    7C  :  AD;
    7D  :  6D;
    7E  :  52;
    7F  :  1E;
    80  :  57;
    81  :  15;
    82  :  81;
    83  :  9E;
END;
