-- Generated by mif_gen Matlab script
-- FPGA SITE - https://fpgasite.blogspot.com

WIDTH=8;
DEPTH=768;

ADDRESS_RADIX=HEX;
DATA_RADIX=HEX;

CONTENT BEGIN
    00  :  9C
    01  :  45
    02  :  EF
    03  :  C1
    04  :  19
    05  :  FA
    06  :  E0
    07  :  3D
    08  :  36
    09  :  36
    0A  :  60
    0B  :  8A
    0C  :  29
    0D  :  7C
    0E  :  BC
    0F  :  FE
    10  :  A9
    11  :  FF
    12  :  A9
    13  :  DB
    14  :  47
    15  :  F4
    16  :  32
    17  :  63
    18  :  AC
    19  :  47
    1A  :  28
    1B  :  E1
    1C  :  EB
    1D  :  9F
    1E  :  D2
    1F  :  A4
    20  :  1E
    21  :  E8
    22  :  C5
    23  :  98
    24  :  A3
    25  :  78
    26  :  AD
    27  :  41
    28  :  9B
    29  :  C8
    2A  :  FB
    2B  :  00
    2C  :  7F
    2D  :  50
    2E  :  DD
    2F  :  D7
    30  :  64
    31  :  E3
    32  :  97
    33  :  52
    34  :  24
    35  :  DB
    36  :  F0
    37  :  A7
    38  :  2D
    39  :  C3
    3A  :  64
    3B  :  D3
    3C  :  6D
    3D  :  10
    3E  :  F3
    3F  :  84
    40  :  9D
    41  :  71
    42  :  2E
    43  :  5F
    44  :  E2
    45  :  DF
    46  :  65
    47  :  29
    48  :  FC
    49  :  9A
    4A  :  06
    4B  :  01
    4C  :  F7
    4D  :  5A
    4E  :  0F
    4F  :  FD
    50  :  71
    51  :  9C
    52  :  8A
    53  :  F4
    54  :  44
    55  :  E7
    56  :  1C
    57  :  3F
    58  :  A9
    59  :  6B
    5A  :  05
    5B  :  5D
    5C  :  C8
    5D  :  DF
    5E  :  AD
    5F  :  1B
    60  :  38
    61  :  5B
    62  :  5C
    63  :  9C
    64  :  C6
    65  :  CB
    66  :  13
    67  :  41
    68  :  7D
    69  :  BB
    6A  :  31
    6B  :  55
    6C  :  90
    6D  :  59
    6E  :  74
    6F  :  7B
    70  :  1B
    71  :  8C
    72  :  37
    73  :  56
    74  :  8C
    75  :  69
    76  :  C1
    77  :  B8
    78  :  5C
    79  :  AC
    7A  :  31
    7B  :  F4
    7C  :  A5
    7D  :  62
    7E  :  29
    7F  :  4E
    80  :  67
    81  :  29
    82  :  61
    83  :  8F
    84  :  A0
    85  :  C0
    86  :  8F
    87  :  DA
    88  :  18
    89  :  CE
    8A  :  C9
    8B  :  F0
    8C  :  8F
    8D  :  D9
    8E  :  B0
    8F  :  10
    90  :  29
    91  :  2F
    92  :  F6
    93  :  BE
    94  :  BA
    95  :  B9
    96  :  EB
    97  :  50
    98  :  83
    99  :  04
    9A  :  D3
    9B  :  92
    9C  :  86
    9D  :  17
    9E  :  26
    9F  :  36
    A0  :  B3
    A1  :  F1
    A2  :  AB
    A3  :  91
    A4  :  4C
    A5  :  54
    A6  :  7F
    A7  :  9A
    A8  :  15
    A9  :  7E
    AA  :  45
    AB  :  C8
    AC  :  63
    AD  :  39
    AE  :  1C
    AF  :  1F
    B0  :  E0
    B1  :  C8
    B2  :  6D
    B3  :  1F
    B4  :  0A
    B5  :  55
    B6  :  44
    B7  :  DA
    B8  :  6C
    B9  :  2E
    BA  :  C6
    BB  :  67
    BC  :  B6
    BD  :  DE
    BE  :  B2
    BF  :  47
    C0  :  5B
    C1  :  92
    C2  :  EB
    C3  :  64
    C4  :  6C
    C5  :  53
    C6  :  5F
    C7  :  70
    C8  :  37
    C9  :  D2
    CA  :  3F
    CB  :  65
    CC  :  59
    CD  :  2D
    CE  :  F8
    CF  :  3C
    D0  :  5D
    D1  :  34
    D2  :  14
    D3  :  9E
    D4  :  A6
    D5  :  4F
    D6  :  FA
    D7  :  26
    D8  :  1E
    D9  :  B1
    DA  :  05
    DB  :  4E
    DC  :  80
    DD  :  37
    DE  :  33
    DF  :  B1
    E0  :  32
    E1  :  BB
    E2  :  B5
    E3  :  13
    E4  :  6A
    E5  :  59
    E6  :  44
    E7  :  E4
    E8  :  D4
    E9  :  92
    EA  :  06
    EB  :  7A
    EC  :  2D
    ED  :  CD
    EE  :  58
    EF  :  F6
    F0  :  8E
    F1  :  12
    F2  :  7E
    F3  :  78
    F4  :  5D
    F5  :  35
    F6  :  1F
    F7  :  56
    F8  :  9C
    F9  :  37
    FA  :  CB
    FB  :  48
    FC  :  6F
    FD  :  7E
    FE  :  0F
    FF  :  00
    100  :  29
    101  :  FC
    102  :  A3
    103  :  F8
    104  :  D3
    105  :  F2
    106  :  3F
    107  :  47
    108  :  66
    109  :  2D
    10A  :  E0
    10B  :  58
    10C  :  A7
    10D  :  31
    10E  :  00
    10F  :  A6
    110  :  3B
    111  :  5D
    112  :  71
    113  :  A3
    114  :  84
    115  :  BB
    116  :  AD
    117  :  5C
    118  :  CD
    119  :  C5
    11A  :  38
    11B  :  FC
    11C  :  C1
    11D  :  20
    11E  :  BF
    11F  :  41
    120  :  71
    121  :  1D
    122  :  2C
    123  :  2A
    124  :  09
    125  :  0B
    126  :  23
    127  :  48
    128  :  A5
    129  :  E2
    12A  :  9C
    12B  :  7D
    12C  :  EB
    12D  :  5C
    12E  :  D6
    12F  :  42
    130  :  85
    131  :  2C
    132  :  4D
    133  :  73
    134  :  01
    135  :  D3
    136  :  01
    137  :  AC
    138  :  5C
    139  :  4D
    13A  :  39
    13B  :  A5
    13C  :  0F
    13D  :  C2
    13E  :  B4
    13F  :  96
    140  :  DE
    141  :  B6
    142  :  73
    143  :  70
    144  :  4D
    145  :  C0
    146  :  93
    147  :  58
    148  :  35
    149  :  D1
    14A  :  1E
    14B  :  58
    14C  :  D6
    14D  :  73
    14E  :  60
    14F  :  B6
    150  :  A7
    151  :  A3
    152  :  E2
    153  :  87
    154  :  E0
    155  :  21
    156  :  22
    157  :  5B
    158  :  E7
    159  :  5D
    15A  :  8D
    15B  :  09
    15C  :  AC
    15D  :  C7
    15E  :  22
    15F  :  77
    160  :  58
    161  :  2F
    162  :  7E
    163  :  55
    164  :  49
    165  :  78
    166  :  80
    167  :  C1
    168  :  A3
    169  :  84
    16A  :  8D
    16B  :  B4
    16C  :  BD
    16D  :  83
    16E  :  48
    16F  :  59
    170  :  6A
    171  :  BE
    172  :  26
    173  :  80
    174  :  DF
    175  :  64
    176  :  85
    177  :  AB
    178  :  3D
    179  :  5E
    17A  :  E9
    17B  :  FF
    17C  :  18
    17D  :  7C
    17E  :  63
    17F  :  B6
    180  :  29
    181  :  FA
    182  :  3F
    183  :  D6
    184  :  EE
    185  :  05
    186  :  7D
    187  :  63
    188  :  81
    189  :  66
    18A  :  F6
    18B  :  7C
    18C  :  31
    18D  :  58
    18E  :  17
    18F  :  F7
    190  :  BD
    191  :  A6
    192  :  80
    193  :  61
    194  :  5F
    195  :  A0
    196  :  1D
    197  :  D7
    198  :  70
    199  :  37
    19A  :  5B
    19B  :  05
    19C  :  70
    19D  :  04
    19E  :  C0
    19F  :  70
    1A0  :  48
    1A1  :  6B
    1A2  :  21
    1A3  :  D9
    1A4  :  AD
    1A5  :  3C
    1A6  :  31
    1A7  :  5C
    1A8  :  DF
    1A9  :  25
    1AA  :  65
    1AB  :  BE
    1AC  :  FD
    1AD  :  0B
    1AE  :  C8
    1AF  :  A1
    1B0  :  A7
    1B1  :  79
    1B2  :  1F
    1B3  :  9F
    1B4  :  2C
    1B5  :  F5
    1B6  :  D9
    1B7  :  F6
    1B8  :  4E
    1B9  :  AC
    1BA  :  BF
    1BB  :  2B
    1BC  :  0C
    1BD  :  AA
    1BE  :  6B
    1BF  :  B0
    1C0  :  B5
    1C1  :  51
    1C2  :  E9
    1C3  :  59
    1C4  :  07
    1C5  :  26
    1C6  :  B6
    1C7  :  1A
    1C8  :  9D
    1C9  :  6C
    1CA  :  73
    1CB  :  EF
    1CC  :  C3
    1CD  :  40
    1CE  :  F2
    1CF  :  D6
    1D0  :  7F
    1D1  :  8E
    1D2  :  AD
    1D3  :  23
    1D4  :  90
    1D5  :  C2
    1D6  :  9B
    1D7  :  80
    1D8  :  B7
    1D9  :  04
    1DA  :  22
    1DB  :  D7
    1DC  :  1D
    1DD  :  AD
    1DE  :  96
    1DF  :  F8
    1E0  :  07
    1E1  :  6A
    1E2  :  A9
    1E3  :  78
    1E4  :  D8
    1E5  :  D7
    1E6  :  A4
    1E7  :  A6
    1E8  :  27
    1E9  :  7A
    1EA  :  0C
    1EB  :  0E
    1EC  :  38
    1ED  :  C7
    1EE  :  88
    1EF  :  DD
    1F0  :  88
    1F1  :  50
    1F2  :  D5
    1F3  :  45
    1F4  :  23
    1F5  :  29
    1F6  :  BE
    1F7  :  0B
    1F8  :  A6
    1F9  :  AE
    1FA  :  B3
    1FB  :  C0
    1FC  :  F9
    1FD  :  2A
    1FE  :  C6
    1FF  :  EB
    200  :  14
    201  :  F2
    202  :  B2
    203  :  24
    204  :  39
    205  :  0A
    206  :  38
    207  :  2D
    208  :  1D
    209  :  73
    20A  :  12
    20B  :  73
    20C  :  00
    20D  :  4C
    20E  :  26
    20F  :  F4
    210  :  1A
    211  :  5C
    212  :  AD
    213  :  C9
    214  :  E3
    215  :  E4
    216  :  88
    217  :  83
    218  :  EF
    219  :  12
    21A  :  D9
    21B  :  28
    21C  :  55
    21D  :  73
    21E  :  1B
    21F  :  09
    220  :  BA
    221  :  81
    222  :  D4
    223  :  B8
    224  :  FE
    225  :  F8
    226  :  16
    227  :  B6
    228  :  AD
    229  :  69
    22A  :  62
    22B  :  B2
    22C  :  EF
    22D  :  E1
    22E  :  08
    22F  :  5B
    230  :  52
    231  :  0F
    232  :  55
    233  :  0A
    234  :  9F
    235  :  A4
    236  :  8C
    237  :  47
    238  :  1F
    239  :  71
    23A  :  66
    23B  :  68
    23C  :  61
    23D  :  76
    23E  :  D9
    23F  :  E3
    240  :  44
    241  :  BF
    242  :  75
    243  :  2E
    244  :  AA
    245  :  34
    246  :  AF
    247  :  2B
    248  :  3D
    249  :  59
    24A  :  3F
    24B  :  58
    24C  :  9C
    24D  :  78
    24E  :  19
    24F  :  6E
    250  :  DC
    251  :  30
    252  :  14
    253  :  B7
    254  :  5B
    255  :  18
    256  :  E7
    257  :  7A
    258  :  08
    259  :  58
    25A  :  A8
    25B  :  F6
    25C  :  84
    25D  :  F1
    25E  :  BB
    25F  :  F1
    260  :  47
    261  :  1E
    262  :  C6
    263  :  7C
    264  :  D5
    265  :  9F
    266  :  D7
    267  :  1E
    268  :  27
    269  :  DB
    26A  :  53
    26B  :  F3
    26C  :  6D
    26D  :  6F
    26E  :  1A
    26F  :  90
    270  :  FA
    271  :  42
    272  :  BA
    273  :  00
    274  :  AD
    275  :  6D
    276  :  52
    277  :  1E
    278  :  57
    279  :  15
    27A  :  81
    27B  :  9F
    27C  :  4F
    27D  :  12
    27E  :  71
    27F  :  C5
    280  :  3D
    281  :  8E
    282  :  98
    283  :  50
    284  :  01
    285  :  5F
    286  :  0B
    287  :  97
    288  :  2F
    289  :  EA
    28A  :  6F
    28B  :  18
    28C  :  11
    28D  :  F1
    28E  :  88
    28F  :  85
    290  :  4E
    291  :  B8
    292  :  B0
    293  :  3A
    294  :  F6
    295  :  9A
    296  :  2B
    297  :  B2
    298  :  BC
    299  :  82
    29A  :  D2
    29B  :  72
    29C  :  E2
    29D  :  53
    29E  :  C5
    29F  :  72
    2A0  :  94
    2A1  :  9E
    2A2  :  C2
    2A3  :  AE
    2A4  :  9A
    2A5  :  0A
    2A6  :  C9
    2A7  :  EE
    2A8  :  FC
    2A9  :  71
    2AA  :  16
    2AB  :  13
    2AC  :  4E
    2AD  :  9E
    2AE  :  92
    2AF  :  91
    2B0  :  CB
    2B1  :  B8
    2B2  :  19
    2B3  :  91
    2B4  :  43
    2B5  :  13
    2B6  :  57
    2B7  :  5B
    2B8  :  23
    2B9  :  07
    2BA  :  C0
    2BB  :  56
    2BC  :  18
    2BD  :  A5
    2BE  :  6B
    2BF  :  D0
    2C0  :  D1
    2C1  :  D6
    2C2  :  11
    2C3  :  C5
    2C4  :  E8
    2C5  :  C0
    2C6  :  43
    2C7  :  9A
    2C8  :  14
    2C9  :  52
    2CA  :  24
    2CB  :  3F
    2CC  :  90
    2CD  :  D1
    2CE  :  9F
    2CF  :  27
    2D0  :  DB
    2D1  :  38
    2D2  :  86
    2D3  :  FC
    2D4  :  8D
    2D5  :  74
    2D6  :  DA
    2D7  :  22
    2D8  :  07
    2D9  :  D2
    2DA  :  06
    2DB  :  CD
    2DC  :  3F
    2DD  :  28
    2DE  :  97
    2DF  :  74
    2E0  :  F4
    2E1  :  0A
    2E2  :  F4
    2E3  :  2C
    2E4  :  10
    2E5  :  29
    2E6  :  90
    2E7  :  70
    2E8  :  97
    2E9  :  F0
    2EA  :  C2
    2EB  :  AD
    2EC  :  3D
    2ED  :  24
    2EE  :  82
    2EF  :  3F
    2F0  :  FA
    2F1  :  89
    2F2  :  3F
    2F3  :  C5
    2F4  :  D7
    2F5  :  65
    2F6  :  25
    2F7  :  9C
    2F8  :  1C
    2F9  :  AC
    2FA  :  D2
    2FB  :  7B
    2FC  :  20
    2FD  :  EE
    2FE  :  2D
    2FF  :  5A
END;
