-- Generated by mif_gen Matlab script
-- FPGA SITE - https://fpgasite.blogspot.com

WIDTH=8;
DEPTH=768;

ADDRESS_RADIX=HEX;
DATA_RADIX=HEX;

CONTENT BEGIN;
    00  :  66;
    01  :  66;
    02  :  66;
    03  :  66;
    04  :  66;
    05  :  66;
    06  :  66;
    07  :  66;
    08  :  66;
    09  :  66;
    0A  :  66;
    0B  :  66;
    0C  :  66;
    0D  :  66;
    0E  :  66;
    0F  :  66;
    10  :  66;
    11  :  66;
    12  :  66;
    13  :  66;
    14  :  66;
    15  :  66;
    16  :  66;
    17  :  66;
    18  :  66;
    19  :  66;
    1A  :  66;
    1B  :  66;
    1C  :  66;
    1D  :  66;
    1E  :  66;
    1F  :  66;
    20  :  66;
    21  :  66;
    22  :  66;
    23  :  66;
    24  :  66;
    25  :  66;
    26  :  66;
    27  :  66;
    28  :  66;
    29  :  66;
    2A  :  66;
    2B  :  66;
    2C  :  66;
    2D  :  66;
    2E  :  66;
    2F  :  66;
    30  :  66;
    31  :  66;
    32  :  66;
    33  :  66;
    34  :  66;
    35  :  66;
    36  :  66;
    37  :  66;
    38  :  66;
    39  :  66;
    3A  :  66;
    3B  :  66;
    3C  :  66;
    3D  :  66;
    3E  :  66;
    3F  :  66;
    40  :  66;
    41  :  66;
    42  :  66;
    43  :  66;
    44  :  66;
    45  :  66;
    46  :  66;
    47  :  66;
    48  :  66;
    49  :  66;
    4A  :  66;
    4B  :  66;
    4C  :  66;
    4D  :  66;
    4E  :  66;
    4F  :  66;
    50  :  66;
    51  :  66;
    52  :  66;
    53  :  66;
    54  :  66;
    55  :  66;
    56  :  66;
    57  :  66;
    58  :  66;
    59  :  66;
    5A  :  66;
    5B  :  66;
    5C  :  66;
    5D  :  66;
    5E  :  66;
    5F  :  66;
    60  :  66;
    61  :  66;
    62  :  66;
    63  :  66;
    64  :  66;
    65  :  66;
    66  :  66;
    67  :  66;
    68  :  66;
    69  :  66;
    6A  :  66;
    6B  :  66;
    6C  :  66;
    6D  :  66;
    6E  :  66;
    6F  :  66;
    70  :  66;
    71  :  66;
    72  :  66;
    73  :  66;
    74  :  66;
    75  :  66;
    76  :  66;
    77  :  66;
    78  :  66;
    79  :  66;
    7A  :  66;
    7B  :  66;
    7C  :  66;
    7D  :  66;
    7E  :  66;
    7F  :  66;
    80  :  66;
    81  :  66;
    82  :  66;
    83  :  66;
    84  :  66;
    85  :  66;
    86  :  66;
    87  :  66;
    88  :  66;
    89  :  66;
    8A  :  66;
    8B  :  66;
    8C  :  66;
    8D  :  66;
    8E  :  66;
    8F  :  66;
    90  :  66;
    91  :  66;
    92  :  66;
    93  :  66;
    94  :  66;
    95  :  66;
    96  :  66;
    97  :  66;
    98  :  66;
    99  :  66;
    9A  :  66;
    9B  :  66;
    9C  :  66;
    9D  :  66;
    9E  :  66;
    9F  :  66;
    A0  :  66;
    A1  :  66;
    A2  :  66;
    A3  :  66;
    A4  :  66;
    A5  :  66;
    A6  :  66;
    A7  :  66;
    A8  :  66;
    A9  :  66;
    AA  :  66;
    AB  :  66;
    AC  :  66;
    AD  :  66;
    AE  :  66;
    AF  :  66;
    B0  :  66;
    B1  :  66;
    B2  :  66;
    B3  :  66;
    B4  :  66;
    B5  :  66;
    B6  :  66;
    B7  :  66;
    B8  :  66;
    B9  :  66;
    BA  :  66;
    BB  :  66;
    BC  :  66;
    BD  :  66;
    BE  :  66;
    BF  :  66;
    C0  :  66;
    C1  :  66;
    C2  :  66;
    C3  :  66;
    C4  :  66;
    C5  :  66;
    C6  :  66;
    C7  :  66;
    C8  :  66;
    C9  :  66;
    CA  :  66;
    CB  :  66;
    CC  :  66;
    CD  :  66;
    CE  :  66;
    CF  :  66;
    D0  :  66;
    D1  :  66;
    D2  :  66;
    D3  :  66;
    D4  :  66;
    D5  :  66;
    D6  :  66;
    D7  :  66;
    D8  :  66;
    D9  :  66;
    DA  :  66;
    DB  :  66;
    DC  :  66;
    DD  :  66;
    DE  :  66;
    DF  :  66;
    E0  :  66;
    E1  :  66;
    E2  :  66;
    E3  :  66;
    E4  :  66;
    E5  :  66;
    E6  :  66;
    E7  :  66;
    E8  :  66;
    E9  :  66;
    EA  :  66;
    EB  :  66;
    EC  :  66;
    ED  :  66;
    EE  :  66;
    EF  :  66;
    F0  :  66;
    F1  :  66;
    F2  :  66;
    F3  :  66;
    F4  :  66;
    F5  :  66;
    F6  :  66;
    F7  :  66;
    F8  :  66;
    F9  :  66;
    FA  :  66;
    FB  :  66;
    FC  :  66;
    FD  :  66;
    FE  :  66;
    FF  :  66;
    100  :  66;
    101  :  66;
    102  :  66;
    103  :  66;
    104  :  66;
    105  :  66;
    106  :  66;
    107  :  66;
    108  :  66;
    109  :  66;
    10A  :  66;
    10B  :  66;
    10C  :  66;
    10D  :  66;
    10E  :  66;
    10F  :  66;
    110  :  66;
    111  :  66;
    112  :  66;
    113  :  66;
    114  :  66;
    115  :  66;
    116  :  66;
    117  :  66;
    118  :  66;
    119  :  66;
    11A  :  66;
    11B  :  66;
    11C  :  66;
    11D  :  66;
    11E  :  66;
    11F  :  66;
    120  :  66;
    121  :  66;
    122  :  66;
    123  :  66;
    124  :  66;
    125  :  66;
    126  :  66;
    127  :  66;
    128  :  66;
    129  :  66;
    12A  :  66;
    12B  :  66;
    12C  :  66;
    12D  :  66;
    12E  :  66;
    12F  :  66;
    130  :  66;
    131  :  66;
    132  :  66;
    133  :  66;
    134  :  66;
    135  :  66;
    136  :  66;
    137  :  66;
    138  :  66;
    139  :  66;
    13A  :  66;
    13B  :  66;
    13C  :  66;
    13D  :  66;
    13E  :  66;
    13F  :  66;
    140  :  66;
    141  :  66;
    142  :  66;
    143  :  66;
    144  :  66;
    145  :  66;
    146  :  66;
    147  :  66;
    148  :  66;
    149  :  66;
    14A  :  66;
    14B  :  66;
    14C  :  66;
    14D  :  66;
    14E  :  66;
    14F  :  66;
    150  :  66;
    151  :  66;
    152  :  66;
    153  :  66;
    154  :  66;
    155  :  66;
    156  :  66;
    157  :  66;
    158  :  66;
    159  :  66;
    15A  :  66;
    15B  :  66;
    15C  :  66;
    15D  :  66;
    15E  :  66;
    15F  :  66;
    160  :  66;
    161  :  66;
    162  :  66;
    163  :  66;
    164  :  66;
    165  :  66;
    166  :  66;
    167  :  66;
    168  :  66;
    169  :  66;
    16A  :  66;
    16B  :  66;
    16C  :  66;
    16D  :  66;
    16E  :  66;
    16F  :  66;
    170  :  66;
    171  :  66;
    172  :  66;
    173  :  66;
    174  :  66;
    175  :  66;
    176  :  66;
    177  :  66;
    178  :  66;
    179  :  66;
    17A  :  66;
    17B  :  66;
    17C  :  66;
    17D  :  66;
    17E  :  66;
    17F  :  66;
    180  :  66;
    181  :  66;
    182  :  66;
    183  :  66;
    184  :  66;
    185  :  66;
    186  :  66;
    187  :  66;
    188  :  66;
    189  :  66;
    18A  :  66;
    18B  :  66;
    18C  :  66;
    18D  :  66;
    18E  :  66;
    18F  :  66;
    190  :  66;
    191  :  66;
    192  :  66;
    193  :  66;
    194  :  66;
    195  :  66;
    196  :  66;
    197  :  66;
    198  :  66;
    199  :  66;
    19A  :  66;
    19B  :  66;
    19C  :  66;
    19D  :  66;
    19E  :  66;
    19F  :  66;
    1A0  :  66;
    1A1  :  66;
    1A2  :  66;
    1A3  :  66;
    1A4  :  66;
    1A5  :  66;
    1A6  :  66;
    1A7  :  66;
    1A8  :  66;
    1A9  :  66;
    1AA  :  66;
    1AB  :  66;
    1AC  :  66;
    1AD  :  66;
    1AE  :  66;
    1AF  :  66;
    1B0  :  66;
    1B1  :  66;
    1B2  :  66;
    1B3  :  66;
    1B4  :  66;
    1B5  :  66;
    1B6  :  66;
    1B7  :  66;
    1B8  :  66;
    1B9  :  66;
    1BA  :  66;
    1BB  :  66;
    1BC  :  66;
    1BD  :  66;
    1BE  :  66;
    1BF  :  66;
    1C0  :  66;
    1C1  :  66;
    1C2  :  66;
    1C3  :  66;
    1C4  :  66;
    1C5  :  66;
    1C6  :  66;
    1C7  :  66;
    1C8  :  66;
    1C9  :  66;
    1CA  :  66;
    1CB  :  66;
    1CC  :  66;
    1CD  :  66;
    1CE  :  66;
    1CF  :  66;
    1D0  :  66;
    1D1  :  66;
    1D2  :  66;
    1D3  :  66;
    1D4  :  66;
    1D5  :  66;
    1D6  :  66;
    1D7  :  66;
    1D8  :  66;
    1D9  :  66;
    1DA  :  66;
    1DB  :  66;
    1DC  :  66;
    1DD  :  66;
    1DE  :  66;
    1DF  :  66;
    1E0  :  66;
    1E1  :  66;
    1E2  :  66;
    1E3  :  66;
    1E4  :  66;
    1E5  :  66;
    1E6  :  66;
    1E7  :  66;
    1E8  :  66;
    1E9  :  66;
    1EA  :  66;
    1EB  :  66;
    1EC  :  66;
    1ED  :  66;
    1EE  :  66;
    1EF  :  66;
    1F0  :  66;
    1F1  :  66;
    1F2  :  66;
    1F3  :  66;
    1F4  :  66;
    1F5  :  66;
    1F6  :  66;
    1F7  :  66;
    1F8  :  66;
    1F9  :  66;
    1FA  :  66;
    1FB  :  66;
    1FC  :  66;
    1FD  :  66;
    1FE  :  66;
    1FF  :  66;
    200  :  66;
    201  :  66;
    202  :  66;
    203  :  66;
    204  :  66;
    205  :  66;
    206  :  66;
    207  :  66;
    208  :  66;
    209  :  66;
    20A  :  66;
    20B  :  66;
    20C  :  66;
    20D  :  66;
    20E  :  66;
    20F  :  66;
    210  :  66;
    211  :  66;
    212  :  66;
    213  :  66;
    214  :  66;
    215  :  66;
    216  :  66;
    217  :  66;
    218  :  66;
    219  :  66;
    21A  :  66;
    21B  :  66;
    21C  :  66;
    21D  :  66;
    21E  :  66;
    21F  :  66;
    220  :  66;
    221  :  66;
    222  :  66;
    223  :  66;
    224  :  66;
    225  :  66;
    226  :  66;
    227  :  66;
    228  :  66;
    229  :  66;
    22A  :  66;
    22B  :  66;
    22C  :  66;
    22D  :  66;
    22E  :  66;
    22F  :  66;
    230  :  66;
    231  :  66;
    232  :  66;
    233  :  66;
    234  :  66;
    235  :  66;
    236  :  66;
    237  :  66;
    238  :  66;
    239  :  66;
    23A  :  66;
    23B  :  66;
    23C  :  66;
    23D  :  66;
    23E  :  66;
    23F  :  66;
    240  :  66;
    241  :  66;
    242  :  66;
    243  :  66;
    244  :  66;
    245  :  66;
    246  :  66;
    247  :  66;
    248  :  66;
    249  :  66;
    24A  :  66;
    24B  :  66;
    24C  :  66;
    24D  :  66;
    24E  :  66;
    24F  :  66;
    250  :  66;
    251  :  66;
    252  :  66;
    253  :  66;
    254  :  66;
    255  :  66;
    256  :  66;
    257  :  66;
    258  :  66;
    259  :  66;
    25A  :  66;
    25B  :  66;
    25C  :  66;
    25D  :  66;
    25E  :  66;
    25F  :  66;
    260  :  66;
    261  :  66;
    262  :  66;
    263  :  66;
    264  :  66;
    265  :  66;
    266  :  66;
    267  :  66;
    268  :  66;
    269  :  66;
    26A  :  66;
    26B  :  66;
    26C  :  66;
    26D  :  66;
    26E  :  66;
    26F  :  66;
    270  :  66;
    271  :  66;
    272  :  66;
    273  :  66;
    274  :  66;
    275  :  66;
    276  :  66;
    277  :  66;
    278  :  66;
    279  :  66;
    27A  :  66;
    27B  :  66;
    27C  :  66;
    27D  :  66;
    27E  :  66;
    27F  :  66;
    280  :  66;
    281  :  66;
    282  :  66;
    283  :  66;
    284  :  66;
    285  :  66;
    286  :  66;
    287  :  66;
    288  :  66;
    289  :  66;
    28A  :  66;
    28B  :  66;
    28C  :  66;
    28D  :  66;
    28E  :  66;
    28F  :  66;
    290  :  66;
    291  :  66;
    292  :  66;
    293  :  66;
    294  :  66;
    295  :  66;
    296  :  66;
    297  :  66;
    298  :  66;
    299  :  66;
    29A  :  66;
    29B  :  66;
    29C  :  66;
    29D  :  66;
    29E  :  66;
    29F  :  66;
    2A0  :  66;
    2A1  :  66;
    2A2  :  66;
    2A3  :  66;
    2A4  :  66;
    2A5  :  66;
    2A6  :  66;
    2A7  :  66;
    2A8  :  66;
    2A9  :  66;
    2AA  :  66;
    2AB  :  66;
    2AC  :  66;
    2AD  :  66;
    2AE  :  66;
    2AF  :  66;
    2B0  :  66;
    2B1  :  66;
    2B2  :  66;
    2B3  :  66;
    2B4  :  66;
    2B5  :  66;
    2B6  :  66;
    2B7  :  66;
    2B8  :  66;
    2B9  :  66;
    2BA  :  66;
    2BB  :  66;
    2BC  :  66;
    2BD  :  66;
    2BE  :  66;
    2BF  :  66;
    2C0  :  66;
    2C1  :  66;
    2C2  :  66;
    2C3  :  66;
    2C4  :  66;
    2C5  :  66;
    2C6  :  66;
    2C7  :  66;
    2C8  :  66;
    2C9  :  66;
    2CA  :  66;
    2CB  :  66;
    2CC  :  66;
    2CD  :  66;
    2CE  :  66;
    2CF  :  66;
    2D0  :  66;
    2D1  :  66;
    2D2  :  66;
    2D3  :  66;
    2D4  :  66;
    2D5  :  66;
    2D6  :  66;
    2D7  :  66;
    2D8  :  66;
    2D9  :  66;
    2DA  :  66;
    2DB  :  66;
    2DC  :  66;
    2DD  :  66;
    2DE  :  66;
    2DF  :  66;
    2E0  :  66;
    2E1  :  66;
    2E2  :  66;
    2E3  :  66;
    2E4  :  66;
    2E5  :  66;
    2E6  :  66;
    2E7  :  66;
    2E8  :  66;
    2E9  :  66;
    2EA  :  66;
    2EB  :  66;
    2EC  :  66;
    2ED  :  66;
    2EE  :  66;
    2EF  :  66;
    2F0  :  66;
    2F1  :  66;
    2F2  :  66;
    2F3  :  66;
    2F4  :  66;
    2F5  :  66;
    2F6  :  66;
    2F7  :  66;
    2F8  :  66;
    2F9  :  66;
    2FA  :  66;
    2FB  :  66;
    2FC  :  66;
    2FD  :  66;
    2FE  :  66;
    2FF  :  66;
END;
