-- Generated by mif_gen Matlab script
-- FPGA SITE - https://fpgasite.blogspot.com

WIDTH=8;
DEPTH=768;

ADDRESS_RADIX=HEX;
DATA_RADIX=HEX;

CONTENT BEGIN
    00  :  AA
    01  :  AA
    02  :  AA
    03  :  AA
    04  :  AA
    05  :  AA
    06  :  AA
    07  :  AA
    08  :  AA
    09  :  AA
    0A  :  AA
    0B  :  AA
    0C  :  AA
    0D  :  AA
    0E  :  AA
    0F  :  AA
    10  :  AA
    11  :  AA
    12  :  AA
    13  :  AA
    14  :  AA
    15  :  AA
    16  :  AA
    17  :  AA
    18  :  AA
    19  :  AA
    1A  :  AA
    1B  :  AA
    1C  :  AA
    1D  :  AA
    1E  :  AA
    1F  :  AA
    20  :  AA
    21  :  AA
    22  :  AA
    23  :  AA
    24  :  AA
    25  :  AA
    26  :  AA
    27  :  AA
    28  :  AA
    29  :  AA
    2A  :  AA
    2B  :  AA
    2C  :  AA
    2D  :  AA
    2E  :  AA
    2F  :  AA
    30  :  AA
    31  :  AA
    32  :  AA
    33  :  AA
    34  :  AA
    35  :  AA
    36  :  AA
    37  :  AA
    38  :  AA
    39  :  AA
    3A  :  AA
    3B  :  AA
    3C  :  AA
    3D  :  AA
    3E  :  AA
    3F  :  AA
    40  :  AA
    41  :  AA
    42  :  AA
    43  :  AA
    44  :  AA
    45  :  AA
    46  :  AA
    47  :  AA
    48  :  AA
    49  :  AA
    4A  :  AA
    4B  :  AA
    4C  :  AA
    4D  :  AA
    4E  :  AA
    4F  :  AA
    50  :  AA
    51  :  AA
    52  :  AA
    53  :  AA
    54  :  AA
    55  :  AA
    56  :  AA
    57  :  AA
    58  :  AA
    59  :  AA
    5A  :  AA
    5B  :  AA
    5C  :  AA
    5D  :  AA
    5E  :  AA
    5F  :  AA
    60  :  AA
    61  :  AA
    62  :  AA
    63  :  AA
    64  :  AA
    65  :  AA
    66  :  AA
    67  :  AA
    68  :  AA
    69  :  AA
    6A  :  AA
    6B  :  AA
    6C  :  AA
    6D  :  AA
    6E  :  AA
    6F  :  AA
    70  :  AA
    71  :  AA
    72  :  AA
    73  :  AA
    74  :  AA
    75  :  AA
    76  :  AA
    77  :  AA
    78  :  AA
    79  :  AA
    7A  :  AA
    7B  :  AA
    7C  :  AA
    7D  :  AA
    7E  :  AA
    7F  :  AA
    80  :  AA
    81  :  AA
    82  :  AA
    83  :  AA
    84  :  AA
    85  :  AA
    86  :  AA
    87  :  AA
    88  :  AA
    89  :  AA
    8A  :  AA
    8B  :  AA
    8C  :  AA
    8D  :  AA
    8E  :  AA
    8F  :  AA
    90  :  AA
    91  :  AA
    92  :  AA
    93  :  AA
    94  :  AA
    95  :  AA
    96  :  AA
    97  :  AA
    98  :  AA
    99  :  AA
    9A  :  AA
    9B  :  AA
    9C  :  AA
    9D  :  AA
    9E  :  AA
    9F  :  AA
    A0  :  AA
    A1  :  AA
    A2  :  AA
    A3  :  AA
    A4  :  AA
    A5  :  AA
    A6  :  AA
    A7  :  AA
    A8  :  AA
    A9  :  AA
    AA  :  AA
    AB  :  AA
    AC  :  AA
    AD  :  AA
    AE  :  AA
    AF  :  AA
    B0  :  AA
    B1  :  AA
    B2  :  AA
    B3  :  AA
    B4  :  AA
    B5  :  AA
    B6  :  AA
    B7  :  AA
    B8  :  AA
    B9  :  AA
    BA  :  AA
    BB  :  AA
    BC  :  AA
    BD  :  AA
    BE  :  AA
    BF  :  AA
    C0  :  AA
    C1  :  AA
    C2  :  AA
    C3  :  AA
    C4  :  AA
    C5  :  AA
    C6  :  AA
    C7  :  AA
    C8  :  AA
    C9  :  AA
    CA  :  AA
    CB  :  AA
    CC  :  AA
    CD  :  AA
    CE  :  AA
    CF  :  AA
    D0  :  AA
    D1  :  AA
    D2  :  AA
    D3  :  AA
    D4  :  AA
    D5  :  AA
    D6  :  AA
    D7  :  AA
    D8  :  AA
    D9  :  AA
    DA  :  AA
    DB  :  AA
    DC  :  AA
    DD  :  AA
    DE  :  AA
    DF  :  AA
    E0  :  AA
    E1  :  AA
    E2  :  AA
    E3  :  AA
    E4  :  AA
    E5  :  AA
    E6  :  AA
    E7  :  AA
    E8  :  AA
    E9  :  AA
    EA  :  AA
    EB  :  AA
    EC  :  AA
    ED  :  AA
    EE  :  AA
    EF  :  AA
    F0  :  AA
    F1  :  AA
    F2  :  AA
    F3  :  AA
    F4  :  AA
    F5  :  AA
    F6  :  AA
    F7  :  AA
    F8  :  AA
    F9  :  AA
    FA  :  AA
    FB  :  AA
    FC  :  AA
    FD  :  AA
    FE  :  AA
    FF  :  AA
    100  :  AA
    101  :  AA
    102  :  AA
    103  :  AA
    104  :  AA
    105  :  AA
    106  :  AA
    107  :  AA
    108  :  AA
    109  :  AA
    10A  :  AA
    10B  :  AA
    10C  :  AA
    10D  :  AA
    10E  :  AA
    10F  :  AA
    110  :  AA
    111  :  AA
    112  :  AA
    113  :  AA
    114  :  AA
    115  :  AA
    116  :  AA
    117  :  AA
    118  :  AA
    119  :  AA
    11A  :  AA
    11B  :  AA
    11C  :  AA
    11D  :  AA
    11E  :  AA
    11F  :  AA
    120  :  AA
    121  :  AA
    122  :  AA
    123  :  AA
    124  :  AA
    125  :  AA
    126  :  AA
    127  :  AA
    128  :  AA
    129  :  AA
    12A  :  AA
    12B  :  AA
    12C  :  AA
    12D  :  AA
    12E  :  AA
    12F  :  AA
    130  :  AA
    131  :  AA
    132  :  AA
    133  :  AA
    134  :  AA
    135  :  AA
    136  :  AA
    137  :  AA
    138  :  AA
    139  :  AA
    13A  :  AA
    13B  :  AA
    13C  :  AA
    13D  :  AA
    13E  :  AA
    13F  :  AA
    140  :  AA
    141  :  AA
    142  :  AA
    143  :  AA
    144  :  AA
    145  :  AA
    146  :  AA
    147  :  AA
    148  :  AA
    149  :  AA
    14A  :  AA
    14B  :  AA
    14C  :  AA
    14D  :  AA
    14E  :  AA
    14F  :  AA
    150  :  AA
    151  :  AA
    152  :  AA
    153  :  AA
    154  :  AA
    155  :  AA
    156  :  AA
    157  :  AA
    158  :  AA
    159  :  AA
    15A  :  AA
    15B  :  AA
    15C  :  AA
    15D  :  AA
    15E  :  AA
    15F  :  AA
    160  :  AA
    161  :  AA
    162  :  AA
    163  :  AA
    164  :  AA
    165  :  AA
    166  :  AA
    167  :  AA
    168  :  AA
    169  :  AA
    16A  :  AA
    16B  :  AA
    16C  :  AA
    16D  :  AA
    16E  :  AA
    16F  :  AA
    170  :  AA
    171  :  AA
    172  :  AA
    173  :  AA
    174  :  AA
    175  :  AA
    176  :  AA
    177  :  AA
    178  :  AA
    179  :  AA
    17A  :  AA
    17B  :  AA
    17C  :  AA
    17D  :  AA
    17E  :  AA
    17F  :  AA
    180  :  AA
    181  :  AA
    182  :  AA
    183  :  AA
    184  :  AA
    185  :  AA
    186  :  AA
    187  :  AA
    188  :  AA
    189  :  AA
    18A  :  AA
    18B  :  AA
    18C  :  AA
    18D  :  AA
    18E  :  AA
    18F  :  AA
    190  :  AA
    191  :  AA
    192  :  AA
    193  :  AA
    194  :  AA
    195  :  AA
    196  :  AA
    197  :  AA
    198  :  AA
    199  :  AA
    19A  :  AA
    19B  :  AA
    19C  :  AA
    19D  :  AA
    19E  :  AA
    19F  :  AA
    1A0  :  AA
    1A1  :  AA
    1A2  :  AA
    1A3  :  AA
    1A4  :  AA
    1A5  :  AA
    1A6  :  AA
    1A7  :  AA
    1A8  :  AA
    1A9  :  AA
    1AA  :  AA
    1AB  :  AA
    1AC  :  AA
    1AD  :  AA
    1AE  :  AA
    1AF  :  AA
    1B0  :  AA
    1B1  :  AA
    1B2  :  AA
    1B3  :  AA
    1B4  :  AA
    1B5  :  AA
    1B6  :  AA
    1B7  :  AA
    1B8  :  AA
    1B9  :  AA
    1BA  :  AA
    1BB  :  AA
    1BC  :  AA
    1BD  :  AA
    1BE  :  AA
    1BF  :  AA
    1C0  :  AA
    1C1  :  AA
    1C2  :  AA
    1C3  :  AA
    1C4  :  AA
    1C5  :  AA
    1C6  :  AA
    1C7  :  AA
    1C8  :  AA
    1C9  :  AA
    1CA  :  AA
    1CB  :  AA
    1CC  :  AA
    1CD  :  AA
    1CE  :  AA
    1CF  :  AA
    1D0  :  AA
    1D1  :  AA
    1D2  :  AA
    1D3  :  AA
    1D4  :  AA
    1D5  :  AA
    1D6  :  AA
    1D7  :  AA
    1D8  :  AA
    1D9  :  AA
    1DA  :  AA
    1DB  :  AA
    1DC  :  AA
    1DD  :  AA
    1DE  :  AA
    1DF  :  AA
    1E0  :  AA
    1E1  :  AA
    1E2  :  AA
    1E3  :  AA
    1E4  :  AA
    1E5  :  AA
    1E6  :  AA
    1E7  :  AA
    1E8  :  AA
    1E9  :  AA
    1EA  :  AA
    1EB  :  AA
    1EC  :  AA
    1ED  :  AA
    1EE  :  AA
    1EF  :  AA
    1F0  :  AA
    1F1  :  AA
    1F2  :  AA
    1F3  :  AA
    1F4  :  AA
    1F5  :  AA
    1F6  :  AA
    1F7  :  AA
    1F8  :  AA
    1F9  :  AA
    1FA  :  AA
    1FB  :  AA
    1FC  :  AA
    1FD  :  AA
    1FE  :  AA
    1FF  :  AA
    200  :  AA
    201  :  AA
    202  :  AA
    203  :  AA
    204  :  AA
    205  :  AA
    206  :  AA
    207  :  AA
    208  :  AA
    209  :  AA
    20A  :  AA
    20B  :  AA
    20C  :  AA
    20D  :  AA
    20E  :  AA
    20F  :  AA
    210  :  AA
    211  :  AA
    212  :  AA
    213  :  AA
    214  :  AA
    215  :  AA
    216  :  AA
    217  :  AA
    218  :  AA
    219  :  AA
    21A  :  AA
    21B  :  AA
    21C  :  AA
    21D  :  AA
    21E  :  AA
    21F  :  AA
    220  :  AA
    221  :  AA
    222  :  AA
    223  :  AA
    224  :  AA
    225  :  AA
    226  :  AA
    227  :  AA
    228  :  AA
    229  :  AA
    22A  :  AA
    22B  :  AA
    22C  :  AA
    22D  :  AA
    22E  :  AA
    22F  :  AA
    230  :  AA
    231  :  AA
    232  :  AA
    233  :  AA
    234  :  AA
    235  :  AA
    236  :  AA
    237  :  AA
    238  :  AA
    239  :  AA
    23A  :  AA
    23B  :  AA
    23C  :  AA
    23D  :  AA
    23E  :  AA
    23F  :  AA
    240  :  AA
    241  :  AA
    242  :  AA
    243  :  AA
    244  :  AA
    245  :  AA
    246  :  AA
    247  :  AA
    248  :  AA
    249  :  AA
    24A  :  AA
    24B  :  AA
    24C  :  AA
    24D  :  AA
    24E  :  AA
    24F  :  AA
    250  :  AA
    251  :  AA
    252  :  AA
    253  :  AA
    254  :  AA
    255  :  AA
    256  :  AA
    257  :  AA
    258  :  AA
    259  :  AA
    25A  :  AA
    25B  :  AA
    25C  :  AA
    25D  :  AA
    25E  :  AA
    25F  :  AA
    260  :  AA
    261  :  AA
    262  :  AA
    263  :  AA
    264  :  AA
    265  :  AA
    266  :  AA
    267  :  AA
    268  :  AA
    269  :  AA
    26A  :  AA
    26B  :  AA
    26C  :  AA
    26D  :  AA
    26E  :  AA
    26F  :  AA
    270  :  AA
    271  :  AA
    272  :  AA
    273  :  AA
    274  :  AA
    275  :  AA
    276  :  AA
    277  :  AA
    278  :  AA
    279  :  AA
    27A  :  AA
    27B  :  AA
    27C  :  AA
    27D  :  AA
    27E  :  AA
    27F  :  AA
    280  :  AA
    281  :  AA
    282  :  AA
    283  :  AA
    284  :  AA
    285  :  AA
    286  :  AA
    287  :  AA
    288  :  AA
    289  :  AA
    28A  :  AA
    28B  :  AA
    28C  :  AA
    28D  :  AA
    28E  :  AA
    28F  :  AA
    290  :  AA
    291  :  AA
    292  :  AA
    293  :  AA
    294  :  AA
    295  :  AA
    296  :  AA
    297  :  AA
    298  :  AA
    299  :  AA
    29A  :  AA
    29B  :  AA
    29C  :  AA
    29D  :  AA
    29E  :  AA
    29F  :  AA
    2A0  :  AA
    2A1  :  AA
    2A2  :  AA
    2A3  :  AA
    2A4  :  AA
    2A5  :  AA
    2A6  :  AA
    2A7  :  AA
    2A8  :  AA
    2A9  :  AA
    2AA  :  AA
    2AB  :  AA
    2AC  :  AA
    2AD  :  AA
    2AE  :  AA
    2AF  :  AA
    2B0  :  AA
    2B1  :  AA
    2B2  :  AA
    2B3  :  AA
    2B4  :  AA
    2B5  :  AA
    2B6  :  AA
    2B7  :  AA
    2B8  :  AA
    2B9  :  AA
    2BA  :  AA
    2BB  :  AA
    2BC  :  AA
    2BD  :  AA
    2BE  :  AA
    2BF  :  AA
    2C0  :  AA
    2C1  :  AA
    2C2  :  AA
    2C3  :  AA
    2C4  :  AA
    2C5  :  AA
    2C6  :  AA
    2C7  :  AA
    2C8  :  AA
    2C9  :  AA
    2CA  :  AA
    2CB  :  AA
    2CC  :  AA
    2CD  :  AA
    2CE  :  AA
    2CF  :  AA
    2D0  :  AA
    2D1  :  AA
    2D2  :  AA
    2D3  :  AA
    2D4  :  AA
    2D5  :  AA
    2D6  :  AA
    2D7  :  AA
    2D8  :  AA
    2D9  :  AA
    2DA  :  AA
    2DB  :  AA
    2DC  :  AA
    2DD  :  AA
    2DE  :  AA
    2DF  :  AA
    2E0  :  AA
    2E1  :  AA
    2E2  :  AA
    2E3  :  AA
    2E4  :  AA
    2E5  :  AA
    2E6  :  AA
    2E7  :  AA
    2E8  :  AA
    2E9  :  AA
    2EA  :  AA
    2EB  :  AA
    2EC  :  AA
    2ED  :  AA
    2EE  :  AA
    2EF  :  AA
    2F0  :  AA
    2F1  :  AA
    2F2  :  AA
    2F3  :  AA
    2F4  :  AA
    2F5  :  AA
    2F6  :  AA
    2F7  :  AA
    2F8  :  AA
    2F9  :  AA
    2FA  :  AA
    2FB  :  AA
    2FC  :  AA
    2FD  :  AA
    2FE  :  AA
    2FF  :  AA
END;
