-- Generated by mif_gen Matlab script
-- FPGA SITE - https://fpgasite.blogspot.com

WIDTH=8;
DEPTH=768;

ADDRESS_RADIX=HEX;
DATA_RADIX=HEX;

CONTENT BEGIN;
    00  :  4F;
    01  :  12;
    02  :  71;
    03  :  C5;
    04  :  3D;
    05  :  8E;
    06  :  98;
    07  :  50;
    08  :  01;
    09  :  5F;
    0A  :  0B;
    0B  :  97;
    0C  :  2F;
    0D  :  EA;
    0E  :  6F;
    0F  :  18;
    10  :  11;
    11  :  F1;
    12  :  88;
    13  :  85;
    14  :  4E;
    15  :  B8;
    16  :  B0;
    17  :  3A;
    18  :  F6;
    19  :  9A;
    1A  :  2B;
    1B  :  B2;
    1C  :  BC;
    1D  :  82;
    1E  :  D2;
    1F  :  72;
    20  :  E2;
    21  :  53;
    22  :  C5;
    23  :  72;
    24  :  94;
    25  :  9E;
    26  :  C2;
    27  :  AE;
    28  :  9A;
    29  :  0A;
    2A  :  C9;
    2B  :  EE;
    2C  :  FC;
    2D  :  71;
    2E  :  16;
    2F  :  13;
    30  :  4E;
    31  :  9E;
    32  :  92;
    33  :  91;
    34  :  CB;
    35  :  B8;
    36  :  19;
    37  :  91;
    38  :  43;
    39  :  13;
    3A  :  57;
    3B  :  5B;
    3C  :  23;
    3D  :  07;
    3E  :  C0;
    3F  :  56;
    40  :  18;
    41  :  A5;
    42  :  6B;
    43  :  D0;
    44  :  D1;
    45  :  D6;
    46  :  11;
    47  :  C5;
    48  :  E8;
    49  :  C0;
    4A  :  43;
    4B  :  9A;
    4C  :  14;
    4D  :  52;
    4E  :  24;
    4F  :  3F;
    50  :  90;
    51  :  D1;
    52  :  9F;
    53  :  27;
    54  :  DB;
    55  :  38;
    56  :  86;
    57  :  FC;
    58  :  8D;
    59  :  74;
    5A  :  DA;
    5B  :  22;
    5C  :  07;
    5D  :  D2;
    5E  :  06;
    5F  :  CD;
    60  :  3F;
    61  :  28;
    62  :  97;
    63  :  74;
    64  :  F4;
    65  :  0A;
    66  :  F4;
    67  :  2C;
    68  :  10;
    69  :  29;
    6A  :  90;
    6B  :  70;
    6C  :  97;
    6D  :  F0;
    6E  :  C2;
    6F  :  AD;
    70  :  3D;
    71  :  24;
    72  :  82;
    73  :  3F;
    74  :  FA;
    75  :  89;
    76  :  3F;
    77  :  C5;
    78  :  D7;
    79  :  65;
    7A  :  25;
    7B  :  9C;
    7C  :  1C;
    7D  :  AC;
    7E  :  D2;
    7F  :  7B;
    80  :  20;
    81  :  EE;
    82  :  2D;
    83  :  5B;
    84  :  C6;
    85  :  C0;
    86  :  3B;
    87  :  EE;
    88  :  D8;
    89  :  DB;
    8A  :  98;
    8B  :  2B;
    8C  :  5E;
    8D  :  BE;
    8E  :  BB;
    8F  :  1D;
    90  :  30;
    91  :  0D;
    92  :  B4;
    93  :  BE;
    94  :  F5;
    95  :  8E;
    96  :  6D;
    97  :  0D;
    98  :  8D;
    99  :  5C;
    9A  :  76;
    9B  :  54;
    9C  :  45;
    9D  :  A7;
    9E  :  CB;
    9F  :  D4;
    A0  :  36;
    A1  :  8D;
    A2  :  A0;
    A3  :  6B;
    A4  :  78;
    A5  :  4C;
    A6  :  2E;
    A7  :  07;
    A8  :  8D;
    A9  :  EB;
    AA  :  1B;
    AB  :  EF;
    AC  :  0D;
    AD  :  78;
    AE  :  17;
    AF  :  4D;
    B0  :  87;
    B1  :  E3;
    B2  :  FB;
    B3  :  7F;
    B4  :  D5;
    B5  :  3F;
    B6  :  CB;
    B7  :  3C;
    B8  :  1D;
    B9  :  72;
    BA  :  E7;
    BB  :  B7;
    BC  :  6E;
    BD  :  45;
    BE  :  CF;
    BF  :  84;
    C0  :  41;
    C1  :  8E;
    C2  :  2A;
    C3  :  36;
    C4  :  9E;
    C5  :  D9;
    C6  :  17;
    C7  :  3F;
    C8  :  FE;
    C9  :  90;
    CA  :  89;
    CB  :  3F;
    CC  :  52;
    CD  :  9D;
    CE  :  1E;
    CF  :  20;
    D0  :  75;
    D1  :  56;
    D2  :  02;
    D3  :  05;
    D4  :  7A;
    D5  :  C4;
    D6  :  30;
    D7  :  19;
    D8  :  CB;
    D9  :  AC;
    DA  :  62;
    DB  :  08;
    DC  :  0D;
    DD  :  18;
    DE  :  3F;
    DF  :  D0;
    E0  :  1A;
    E1  :  78;
    E2  :  53;
    E3  :  CB;
    E4  :  47;
    E5  :  EC;
    E6  :  A9;
    E7  :  61;
    E8  :  B7;
    E9  :  21;
    EA  :  53;
    EB  :  70;
    EC  :  1A;
    ED  :  40;
    EE  :  53;
    EF  :  44;
    F0  :  1E;
    F1  :  C7;
    F2  :  7F;
    F3  :  EC;
    F4  :  B3;
    F5  :  EB;
    F6  :  5F;
    F7  :  1E;
    F8  :  67;
    F9  :  0D;
    FA  :  47;
    FB  :  31;
    FC  :  2D;
    FD  :  69;
    FE  :  ED;
    FF  :  2F;
    100  :  4D;
    101  :  A9;
    102  :  24;
    103  :  33;
    104  :  28;
    105  :  70;
    106  :  61;
    107  :  24;
    108  :  6F;
    109  :  47;
    10A  :  C2;
    10B  :  0C;
    10C  :  D5;
    10D  :  3F;
    10E  :  F1;
    10F  :  E5;
    110  :  98;
    111  :  3D;
    112  :  B4;
    113  :  06;
    114  :  7B;
    115  :  04;
    116  :  CF;
    117  :  1C;
    118  :  A2;
    119  :  0C;
    11A  :  74;
    11B  :  FF;
    11C  :  F7;
    11D  :  B3;
    11E  :  9C;
    11F  :  3B;
    120  :  ED;
    121  :  47;
    122  :  B8;
    123  :  C7;
    124  :  62;
    125  :  FE;
    126  :  E3;
    127  :  87;
    128  :  38;
    129  :  2F;
    12A  :  B8;
    12B  :  93;
    12C  :  35;
    12D  :  AB;
    12E  :  0A;
    12F  :  2D;
    130  :  AF;
    131  :  6A;
    132  :  E3;
    133  :  F8;
    134  :  B1;
    135  :  BE;
    136  :  0B;
    137  :  2A;
    138  :  FE;
    139  :  E4;
    13A  :  ED;
    13B  :  07;
    13C  :  DE;
    13D  :  21;
    13E  :  F1;
    13F  :  3E;
    140  :  3D;
    141  :  25;
    142  :  41;
    143  :  60;
    144  :  6D;
    145  :  02;
    146  :  0B;
    147  :  1D;
    148  :  09;
    149  :  A3;
    14A  :  D8;
    14B  :  42;
    14C  :  A3;
    14D  :  C4;
    14E  :  3E;
    14F  :  7B;
    150  :  1D;
    151  :  13;
    152  :  8A;
    153  :  4F;
    154  :  E5;
    155  :  1E;
    156  :  D8;
    157  :  26;
    158  :  14;
    159  :  07;
    15A  :  CE;
    15B  :  0E;
    15C  :  7B;
    15D  :  04;
    15E  :  0B;
    15F  :  CA;
    160  :  9B;
    161  :  70;
    162  :  D4;
    163  :  FD;
    164  :  FA;
    165  :  50;
    166  :  03;
    167  :  01;
    168  :  E1;
    169  :  D4;
    16A  :  7A;
    16B  :  81;
    16C  :  8D;
    16D  :  17;
    16E  :  B0;
    16F  :  FF;
    170  :  69;
    171  :  6D;
    172  :  77;
    173  :  D6;
    174  :  47;
    175  :  5E;
    176  :  B7;
    177  :  C0;
    178  :  DA;
    179  :  F8;
    17A  :  67;
    17B  :  3A;
    17C  :  20;
    17D  :  57;
    17E  :  91;
    17F  :  DC;
    180  :  80;
    181  :  D3;
    182  :  4B;
    183  :  89;
    184  :  3E;
    185  :  F7;
    186  :  2B;
    187  :  F4;
    188  :  E0;
    189  :  8B;
    18A  :  58;
    18B  :  71;
    18C  :  3F;
    18D  :  B9;
    18E  :  F5;
    18F  :  DB;
    190  :  01;
    191  :  74;
    192  :  47;
    193  :  4E;
    194  :  91;
    195  :  9C;
    196  :  CE;
    197  :  4D;
    198  :  0C;
    199  :  9F;
    19A  :  91;
    19B  :  06;
    19C  :  03;
    19D  :  67;
    19E  :  AC;
    19F  :  B9;
    1A0  :  B4;
    1A1  :  1C;
    1A2  :  9F;
    1A3  :  FE;
    1A4  :  4D;
    1A5  :  D0;
    1A6  :  E6;
    1A7  :  68;
    1A8  :  51;
    1A9  :  21;
    1AA  :  AC;
    1AB  :  9A;
    1AC  :  38;
    1AD  :  D0;
    1AE  :  0A;
    1AF  :  D0;
    1B0  :  DE;
    1B1  :  76;
    1B2  :  26;
    1B3  :  07;
    1B4  :  03;
    1B5  :  D1;
    1B6  :  40;
    1B7  :  9D;
    1B8  :  0C;
    1B9  :  6F;
    1BA  :  D1;
    1BB  :  ED;
    1BC  :  02;
    1BD  :  34;
    1BE  :  80;
    1BF  :  53;
    1C0  :  06;
    1C1  :  31;
    1C2  :  E8;
    1C3  :  F0;
    1C4  :  04;
    1C5  :  2E;
    1C6  :  A1;
    1C7  :  F4;
    1C8  :  D2;
    1C9  :  48;
    1CA  :  B8;
    1CB  :  58;
    1CC  :  26;
    1CD  :  69;
    1CE  :  26;
    1CF  :  1D;
    1D0  :  3C;
    1D1  :  58;
    1D2  :  28;
    1D3  :  37;
    1D4  :  87;
    1D5  :  68;
    1D6  :  42;
    1D7  :  17;
    1D8  :  7E;
    1D9  :  BB;
    1DA  :  CE;
    1DB  :  6F;
    1DC  :  88;
    1DD  :  24;
    1DE  :  F3;
    1DF  :  43;
    1E0  :  95;
    1E1  :  1E;
    1E2  :  76;
    1E3  :  59;
    1E4  :  C3;
    1E5  :  EB;
    1E6  :  81;
    1E7  :  81;
    1E8  :  BB;
    1E9  :  EA;
    1EA  :  9C;
    1EB  :  6C;
    1EC  :  55;
    1ED  :  66;
    1EE  :  9B;
    1EF  :  68;
    1F0  :  D9;
    1F1  :  86;
    1F2  :  51;
    1F3  :  06;
    1F4  :  8A;
    1F5  :  B1;
    1F6  :  86;
    1F7  :  AD;
    1F8  :  97;
    1F9  :  28;
    1FA  :  EB;
    1FB  :  4E;
    1FC  :  AE;
    1FD  :  3B;
    1FE  :  93;
    1FF  :  6C;
    200  :  32;
    201  :  EA;
    202  :  07;
    203  :  9D;
    204  :  F8;
    205  :  14;
    206  :  23;
    207  :  F7;
    208  :  A5;
    209  :  60;
    20A  :  64;
    20B  :  D3;
    20C  :  EB;
    20D  :  74;
    20E  :  91;
    20F  :  90;
    210  :  02;
    211  :  97;
    212  :  7D;
    213  :  D2;
    214  :  B4;
    215  :  4B;
    216  :  E0;
    217  :  BC;
    218  :  79;
    219  :  B3;
    21A  :  EB;
    21B  :  AC;
    21C  :  C7;
    21D  :  AC;
    21E  :  CE;
    21F  :  1C;
    220  :  90;
    221  :  55;
    222  :  10;
    223  :  3F;
    224  :  3B;
    225  :  C3;
    226  :  22;
    227  :  68;
    228  :  06;
    229  :  F6;
    22A  :  A6;
    22B  :  5E;
    22C  :  16;
    22D  :  2A;
    22E  :  AE;
    22F  :  63;
    230  :  77;
    231  :  7E;
    232  :  E7;
    233  :  BD;
    234  :  1A;
    235  :  BF;
    236  :  4D;
    237  :  8F;
    238  :  FC;
    239  :  40;
    23A  :  F6;
    23B  :  15;
    23C  :  B2;
    23D  :  7D;
    23E  :  52;
    23F  :  1C;
    240  :  27;
    241  :  AA;
    242  :  96;
    243  :  D6;
    244  :  5E;
    245  :  E3;
    246  :  CB;
    247  :  66;
    248  :  D8;
    249  :  9C;
    24A  :  DD;
    24B  :  57;
    24C  :  98;
    24D  :  F9;
    24E  :  C8;
    24F  :  13;
    250  :  A2;
    251  :  71;
    252  :  7D;
    253  :  EA;
    254  :  A2;
    255  :  92;
    256  :  BD;
    257  :  03;
    258  :  B2;
    259  :  5B;
    25A  :  07;
    25B  :  94;
    25C  :  8C;
    25D  :  EB;
    25E  :  D2;
    25F  :  0E;
    260  :  A4;
    261  :  80;
    262  :  2D;
    263  :  73;
    264  :  59;
    265  :  A3;
    266  :  2C;
    267  :  87;
    268  :  0D;
    269  :  F8;
    26A  :  A0;
    26B  :  66;
    26C  :  1C;
    26D  :  F9;
    26E  :  C8;
    26F  :  4A;
    270  :  92;
    271  :  E5;
    272  :  28;
    273  :  7C;
    274  :  A9;
    275  :  BD;
    276  :  ED;
    277  :  78;
    278  :  5C;
    279  :  63;
    27A  :  E2;
    27B  :  53;
    27C  :  8A;
    27D  :  1B;
    27E  :  0D;
    27F  :  4E;
    280  :  96;
    281  :  4F;
    282  :  F9;
    283  :  0E;
    284  :  74;
    285  :  33;
    286  :  1A;
    287  :  7A;
    288  :  F8;
    289  :  B9;
    28A  :  28;
    28B  :  50;
    28C  :  BA;
    28D  :  10;
    28E  :  8F;
    28F  :  8E;
    290  :  91;
    291  :  1A;
    292  :  91;
    293  :  2A;
    294  :  79;
    295  :  C2;
    296  :  0A;
    297  :  1C;
    298  :  E1;
    299  :  7B;
    29A  :  5D;
    29B  :  05;
    29C  :  98;
    29D  :  FD;
    29E  :  CF;
    29F  :  A7;
    2A0  :  37;
    2A1  :  1D;
    2A2  :  87;
    2A3  :  56;
    2A4  :  FC;
    2A5  :  B2;
    2A6  :  13;
    2A7  :  FD;
    2A8  :  A7;
    2A9  :  31;
    2AA  :  9C;
    2AB  :  7E;
    2AC  :  19;
    2AD  :  16;
    2AE  :  69;
    2AF  :  FB;
    2B0  :  9C;
    2B1  :  EA;
    2B2  :  82;
    2B3  :  C7;
    2B4  :  7A;
    2B5  :  4F;
    2B6  :  55;
    2B7  :  6E;
    2B8  :  7C;
    2B9  :  EE;
    2BA  :  01;
    2BB  :  C5;
    2BC  :  5A;
    2BD  :  77;
    2BE  :  1A;
    2BF  :  0A;
    2C0  :  30;
    2C1  :  FB;
    2C2  :  7F;
    2C3  :  5A;
    2C4  :  D9;
    2C5  :  7B;
    2C6  :  DF;
    2C7  :  BB;
    2C8  :  A3;
    2C9  :  2B;
    2CA  :  87;
    2CB  :  F9;
    2CC  :  2D;
    2CD  :  0C;
    2CE  :  79;
    2CF  :  11;
    2D0  :  C8;
    2D1  :  2F;
    2D2  :  7A;
    2D3  :  04;
    2D4  :  A3;
    2D5  :  AA;
    2D6  :  26;
    2D7  :  8F;
    2D8  :  9C;
    2D9  :  1F;
    2DA  :  50;
    2DB  :  70;
    2DC  :  E3;
    2DD  :  AD;
    2DE  :  50;
    2DF  :  AC;
    2E0  :  35;
    2E1  :  4F;
    2E2  :  FC;
    2E3  :  14;
    2E4  :  29;
    2E5  :  FD;
    2E6  :  37;
    2E7  :  B8;
    2E8  :  0A;
    2E9  :  2D;
    2EA  :  FA;
    2EB  :  5B;
    2EC  :  CD;
    2ED  :  23;
    2EE  :  3E;
    2EF  :  6F;
    2F0  :  17;
    2F1  :  8D;
    2F2  :  D4;
    2F3  :  25;
    2F4  :  54;
    2F5  :  D3;
    2F6  :  0B;
    2F7  :  3B;
    2F8  :  10;
    2F9  :  19;
    2FA  :  8B;
    2FB  :  85;
    2FC  :  73;
    2FD  :  6C;
    2FE  :  69;
    2FF  :  18;
END;
