-- Generated by mif_gen Matlab script
-- FPGA SITE - https://fpgasite.blogspot.com

WIDTH=8;
DEPTH=132;

ADDRESS_RADIX=HEX;
DATA_RADIX=HEX;

CONTENT BEGIN
    00  :  E7
    01  :  ED
    02  :  A0
    03  :  8B
    04  :  B1
    05  :  72
    06  :  1E
    07  :  31
    08  :  8A
    09  :  FA
    0A  :  2F
    0B  :  77
    0C  :  1D
    0D  :  CE
    0E  :  63
    0F  :  D8
    10  :  7A
    11  :  17
    12  :  74
    13  :  89
    14  :  75
    15  :  58
    16  :  D8
    17  :  87
    18  :  D1
    19  :  96
    1A  :  75
    1B  :  92
    1C  :  FA
    1D  :  E7
    1E  :  81
    1F  :  04
    20  :  35
    21  :  D3
    22  :  68
    23  :  97
    24  :  9B
    25  :  F2
    26  :  A5
    27  :  90
    28  :  45
    29  :  1B
    2A  :  E1
    2B  :  13
    2C  :  15
    2D  :  AC
    2E  :  CB
    2F  :  73
    30  :  DE
    31  :  BF
    32  :  01
    33  :  93
    34  :  64
    35  :  65
    36  :  02
    37  :  F3
    38  :  97
    39  :  86
    3A  :  4A
    3B  :  79
    3C  :  6B
    3D  :  6F
    3E  :  2E
    3F  :  55
    40  :  CD
    41  :  A6
    42  :  80
    43  :  28
    44  :  5F
    45  :  E6
    46  :  80
    47  :  E7
    48  :  FE
    49  :  45
    4A  :  8C
    4B  :  F6
    4C  :  C4
    4D  :  9A
    4E  :  4E
    4F  :  25
    50  :  F8
    51  :  C8
    52  :  09
    53  :  85
    54  :  FC
    55  :  5F
    56  :  23
    57  :  B5
    58  :  94
    59  :  F7
    5A  :  B9
    5B  :  31
    5C  :  E1
    5D  :  FA
    5E  :  66
    5F  :  04
    60  :  CB
    61  :  9A
    62  :  EA
    63  :  5C
    64  :  2D
    65  :  E4
    66  :  F7
    67  :  BA
    68  :  96
    69  :  2F
    6A  :  32
    6B  :  9D
    6C  :  77
    6D  :  27
    6E  :  95
    6F  :  33
    70  :  21
    71  :  49
    72  :  38
    73  :  6A
    74  :  E1
    75  :  79
    76  :  AA
    77  :  26
    78  :  68
    79  :  06
    7A  :  4A
    7B  :  6D
    7C  :  C2
    7D  :  28
    7E  :  9B
    7F  :  33
    80  :  B8
    81  :  DC
    82  :  CB
    83  :  1C
END;
