-- Generated by mif_gen Matlab script
-- FPGA SITE - https://fpgasite.blogspot.com

WIDTH=8;
DEPTH=132;

ADDRESS_RADIX=HEX;
DATA_RADIX=HEX;

CONTENT BEGIN;
    00  :  EA;
    01  :  8E;
    02  :  BE;
    03  :  52;
    04  :  29;
    05  :  BF;
    06  :  E9;
    07  :  87;
    08  :  27;
    09  :  66;
    0A  :  6C;
    0B  :  78;
    0C  :  36;
    0D  :  0C;
    0E  :  EB;
    0F  :  62;
    10  :  8D;
    11  :  8E;
    12  :  AD;
    13  :  DC;
    14  :  8E;
    15  :  9D;
    16  :  E5;
    17  :  16;
    18  :  F8;
    19  :  5A;
    1A  :  7D;
    1B  :  00;
    1C  :  6A;
    1D  :  74;
    1E  :  23;
    1F  :  5A;
    20  :  7E;
    21  :  61;
    22  :  C8;
    23  :  9A;
    24  :  45;
    25  :  F8;
    26  :  F5;
    27  :  5D;
    28  :  19;
    29  :  50;
    2A  :  44;
    2B  :  A4;
    2C  :  A7;
    2D  :  53;
    2E  :  F0;
    2F  :  4D;
    30  :  49;
    31  :  0D;
    32  :  A2;
    33  :  B7;
    34  :  0A;
    35  :  AC;
    36  :  BF;
    37  :  6D;
    38  :  2E;
    39  :  62;
    3A  :  68;
    3B  :  12;
    3C  :  F7;
    3D  :  3A;
    3E  :  33;
    3F  :  C6;
    40  :  72;
    41  :  0F;
    42  :  06;
    43  :  13;
    44  :  FF;
    45  :  55;
    46  :  16;
    47  :  AA;
    48  :  73;
    49  :  DF;
    4A  :  11;
    4B  :  FF;
    4C  :  5B;
    4D  :  2E;
    4E  :  32;
    4F  :  4B;
    50  :  D9;
    51  :  0C;
    52  :  CD;
    53  :  32;
    54  :  07;
    55  :  44;
    56  :  E0;
    57  :  5E;
    58  :  85;
    59  :  01;
    5A  :  3F;
    5B  :  4D;
    5C  :  A7;
    5D  :  79;
    5E  :  90;
    5F  :  E8;
    60  :  F8;
    61  :  EB;
    62  :  B7;
    63  :  89;
    64  :  1D;
    65  :  1F;
    66  :  9C;
    67  :  72;
    68  :  EA;
    69  :  A6;
    6A  :  05;
    6B  :  F0;
    6C  :  A5;
    6D  :  B6;
    6E  :  14;
    6F  :  3F;
    70  :  3C;
    71  :  DD;
    72  :  8E;
    73  :  D4;
    74  :  89;
    75  :  30;
    76  :  46;
    77  :  F6;
    78  :  AF;
    79  :  40;
    7A  :  3E;
    7B  :  4D;
    7C  :  67;
    7D  :  22;
    7E  :  08;
    7F  :  9C;
    80  :  81;
    81  :  35;
    82  :  D7;
    83  :  AA;
END;
