-- Generated by mif_gen Matlab script
-- FPGA SITE - https://fpgasite.blogspot.com

WIDTH=8;
DEPTH=132;

ADDRESS_RADIX=HEX;
DATA_RADIX=HEX;

CONTENT BEGIN
    00  :  AA
    01  :  AA
    02  :  AA
    03  :  AA
    04  :  AA
    05  :  AA
    06  :  AA
    07  :  AA
    08  :  AA
    09  :  AA
    0A  :  AA
    0B  :  AA
    0C  :  AA
    0D  :  AA
    0E  :  AA
    0F  :  AA
    10  :  AA
    11  :  AA
    12  :  AA
    13  :  AA
    14  :  AA
    15  :  AA
    16  :  AA
    17  :  AA
    18  :  AA
    19  :  AA
    1A  :  AA
    1B  :  AA
    1C  :  AA
    1D  :  AA
    1E  :  AA
    1F  :  AA
    20  :  AA
    21  :  AA
    22  :  AA
    23  :  AA
    24  :  AA
    25  :  AA
    26  :  AA
    27  :  AA
    28  :  AA
    29  :  AA
    2A  :  AA
    2B  :  AA
    2C  :  AA
    2D  :  AA
    2E  :  AA
    2F  :  AA
    30  :  AA
    31  :  AA
    32  :  AA
    33  :  AA
    34  :  AA
    35  :  AA
    36  :  AA
    37  :  AA
    38  :  AA
    39  :  AA
    3A  :  AA
    3B  :  AA
    3C  :  AA
    3D  :  AA
    3E  :  AA
    3F  :  AA
    40  :  AA
    41  :  AA
    42  :  AA
    43  :  AA
    44  :  AA
    45  :  AA
    46  :  AA
    47  :  AA
    48  :  AA
    49  :  AA
    4A  :  AA
    4B  :  AA
    4C  :  AA
    4D  :  AA
    4E  :  AA
    4F  :  AA
    50  :  AA
    51  :  AA
    52  :  AA
    53  :  AA
    54  :  AA
    55  :  AA
    56  :  AA
    57  :  AA
    58  :  AA
    59  :  AA
    5A  :  AA
    5B  :  AA
    5C  :  AA
    5D  :  AA
    5E  :  AA
    5F  :  AA
    60  :  AA
    61  :  AA
    62  :  AA
    63  :  AA
    64  :  AA
    65  :  AA
    66  :  AA
    67  :  AA
    68  :  AA
    69  :  AA
    6A  :  AA
    6B  :  AA
    6C  :  AA
    6D  :  AA
    6E  :  AA
    6F  :  AA
    70  :  AA
    71  :  AA
    72  :  AA
    73  :  AA
    74  :  AA
    75  :  AA
    76  :  AA
    77  :  AA
    78  :  AA
    79  :  AA
    7A  :  AA
    7B  :  AA
    7C  :  AA
    7D  :  AA
    7E  :  AA
    7F  :  AA
    80  :  AA
    81  :  AA
    82  :  AA
    83  :  AA
END;
