-- Generated by mif_gen Matlab script
-- FPGA SITE - https://fpgasite.blogspot.com

WIDTH=8;
DEPTH=768;

ADDRESS_RADIX=HEX;
DATA_RADIX=HEX;

CONTENT BEGIN;
    00  :  2A;
    01  :  69;
    02  :  CF;
    03  :  ED;
    04  :  9E;
    05  :  36;
    06  :  88;
    07  :  C9;
    08  :  73;
    09  :  E9;
    0A  :  8F;
    0B  :  E6;
    0C  :  76;
    0D  :  40;
    0E  :  14;
    0F  :  2B;
    10  :  6E;
    11  :  CF;
    12  :  28;
    13  :  AE;
    14  :  23;
    15  :  AB;
    16  :  6E;
    17  :  EF;
    18  :  51;
    19  :  62;
    1A  :  91;
    1B  :  A4;
    1C  :  54;
    1D  :  B0;
    1E  :  82;
    1F  :  58;
    20  :  79;
    21  :  64;
    22  :  96;
    23  :  19;
    24  :  0B;
    25  :  8D;
    26  :  E4;
    27  :  16;
    28  :  E0;
    29  :  27;
    2A  :  E0;
    2B  :  49;
    2C  :  DD;
    2D  :  5E;
    2E  :  6F;
    2F  :  94;
    30  :  33;
    31  :  34;
    32  :  8D;
    33  :  84;
    34  :  D4;
    35  :  37;
    36  :  20;
    37  :  59;
    38  :  C3;
    39  :  11;
    3A  :  DF;
    3B  :  8A;
    3C  :  2B;
    3D  :  42;
    3E  :  D9;
    3F  :  6A;
    40  :  4E;
    41  :  51;
    42  :  A5;
    43  :  FA;
    44  :  7B;
    45  :  52;
    46  :  8C;
    47  :  A3;
    48  :  B9;
    49  :  18;
    4A  :  48;
    4B  :  CD;
    4C  :  EC;
    4D  :  E7;
    4E  :  88;
    4F  :  B3;
    50  :  9A;
    51  :  11;
    52  :  DF;
    53  :  73;
    54  :  5B;
    55  :  50;
    56  :  DA;
    57  :  52;
    58  :  97;
    59  :  A0;
    5A  :  95;
    5B  :  0F;
    5C  :  DB;
    5D  :  8A;
    5E  :  9D;
    5F  :  1F;
    60  :  48;
    61  :  52;
    62  :  EA;
    63  :  7C;
    64  :  7C;
    65  :  93;
    66  :  2F;
    67  :  BE;
    68  :  CD;
    69  :  41;
    6A  :  CA;
    6B  :  5F;
    6C  :  2B;
    6D  :  04;
    6E  :  E7;
    6F  :  68;
    70  :  EE;
    71  :  7D;
    72  :  DF;
    73  :  F4;
    74  :  B4;
    75  :  04;
    76  :  38;
    77  :  A7;
    78  :  EA;
    79  :  B4;
    7A  :  07;
    7B  :  66;
    7C  :  2E;
    7D  :  28;
    7E  :  9E;
    7F  :  37;
    80  :  F4;
    81  :  BB;
    82  :  E2;
    83  :  92;
    84  :  06;
    85  :  30;
    86  :  BC;
    87  :  EE;
    88  :  1A;
    89  :  64;
    8A  :  56;
    8B  :  FF;
    8C  :  EE;
    8D  :  6D;
    8E  :  75;
    8F  :  CA;
    90  :  43;
    91  :  3A;
    92  :  65;
    93  :  B7;
    94  :  14;
    95  :  78;
    96  :  9E;
    97  :  D5;
    98  :  31;
    99  :  85;
    9A  :  EC;
    9B  :  BC;
    9C  :  C6;
    9D  :  1C;
    9E  :  E4;
    9F  :  20;
    A0  :  9E;
    A1  :  B4;
    A2  :  10;
    A3  :  E5;
    A4  :  E9;
    A5  :  9D;
    A6  :  7A;
    A7  :  3D;
    A8  :  9E;
    A9  :  1B;
    AA  :  6B;
    AB  :  31;
    AC  :  C2;
    AD  :  A4;
    AE  :  9F;
    AF  :  6E;
    B0  :  5C;
    B1  :  96;
    B2  :  ED;
    B3  :  96;
    B4  :  32;
    B5  :  31;
    B6  :  DA;
    B7  :  6F;
    B8  :  F8;
    B9  :  7F;
    BA  :  60;
    BB  :  13;
    BC  :  BA;
    BD  :  A9;
    BE  :  20;
    BF  :  EA;
    C0  :  0A;
    C1  :  94;
    C2  :  72;
    C3  :  21;
    C4  :  E4;
    C5  :  38;
    C6  :  84;
    C7  :  A8;
    C8  :  16;
    C9  :  CE;
    CA  :  61;
    CB  :  AE;
    CC  :  C4;
    CD  :  0B;
    CE  :  00;
    CF  :  2B;
    D0  :  DF;
    D1  :  3F;
    D2  :  91;
    D3  :  9A;
    D4  :  FB;
    D5  :  DA;
    D6  :  D7;
    D7  :  33;
    D8  :  A9;
    D9  :  66;
    DA  :  1D;
    DB  :  A7;
    DC  :  FE;
    DD  :  F1;
    DE  :  BD;
    DF  :  EE;
    E0  :  D1;
    E1  :  3A;
    E2  :  AD;
    E3  :  4A;
    E4  :  2F;
    E5  :  1D;
    E6  :  E5;
    E7  :  46;
    E8  :  F4;
    E9  :  CA;
    EA  :  E5;
    EB  :  74;
    EC  :  46;
    ED  :  CE;
    EE  :  B5;
    EF  :  A1;
    F0  :  6A;
    F1  :  CD;
    F2  :  25;
    F3  :  6F;
    F4  :  77;
    F5  :  25;
    F6  :  CE;
    F7  :  3C;
    F8  :  43;
    F9  :  3B;
    FA  :  FF;
    FB  :  8E;
    FC  :  8E;
    FD  :  12;
    FE  :  90;
    FF  :  C9;
    100  :  7B;
    101  :  A4;
    102  :  AA;
    103  :  C9;
    104  :  2D;
    105  :  FC;
    106  :  17;
    107  :  75;
    108  :  22;
    109  :  69;
    10A  :  25;
    10B  :  64;
    10C  :  FB;
    10D  :  52;
    10E  :  24;
    10F  :  02;
    110  :  16;
    111  :  87;
    112  :  6B;
    113  :  FC;
    114  :  91;
    115  :  CF;
    116  :  D1;
    117  :  0E;
    118  :  21;
    119  :  DC;
    11A  :  0C;
    11B  :  09;
    11C  :  58;
    11D  :  C2;
    11E  :  1E;
    11F  :  AD;
    120  :  93;
    121  :  3C;
    122  :  7B;
    123  :  06;
    124  :  3E;
    125  :  0D;
    126  :  D6;
    127  :  18;
    128  :  B6;
    129  :  48;
    12A  :  27;
    12B  :  79;
    12C  :  4E;
    12D  :  87;
    12E  :  78;
    12F  :  6A;
    130  :  F0;
    131  :  44;
    132  :  6E;
    133  :  D5;
    134  :  0D;
    135  :  7D;
    136  :  9C;
    137  :  41;
    138  :  65;
    139  :  C0;
    13A  :  7F;
    13B  :  7C;
    13C  :  7C;
    13D  :  16;
    13E  :  47;
    13F  :  64;
    140  :  78;
    141  :  C6;
    142  :  16;
    143  :  8F;
    144  :  58;
    145  :  1C;
    146  :  54;
    147  :  89;
    148  :  0C;
    149  :  0D;
    14A  :  AC;
    14B  :  58;
    14C  :  D8;
    14D  :  53;
    14E  :  7C;
    14F  :  18;
    150  :  52;
    151  :  93;
    152  :  BD;
    153  :  9D;
    154  :  E0;
    155  :  C9;
    156  :  3F;
    157  :  36;
    158  :  A4;
    159  :  B0;
    15A  :  F4;
    15B  :  D1;
    15C  :  C6;
    15D  :  1A;
    15E  :  82;
    15F  :  AB;
    160  :  A4;
    161  :  74;
    162  :  BE;
    163  :  B4;
    164  :  3F;
    165  :  9F;
    166  :  D6;
    167  :  65;
    168  :  B4;
    169  :  BA;
    16A  :  9D;
    16B  :  5F;
    16C  :  AC;
    16D  :  7C;
    16E  :  D6;
    16F  :  7C;
    170  :  4C;
    171  :  C3;
    172  :  69;
    173  :  CF;
    174  :  70;
    175  :  B9;
    176  :  A9;
    177  :  28;
    178  :  E2;
    179  :  5D;
    17A  :  35;
    17B  :  62;
    17C  :  92;
    17D  :  96;
    17E  :  5B;
    17F  :  12;
    180  :  E5;
    181  :  1B;
    182  :  58;
    183  :  60;
    184  :  5B;
    185  :  BB;
    186  :  8A;
    187  :  32;
    188  :  9F;
    189  :  63;
    18A  :  DE;
    18B  :  30;
    18C  :  60;
    18D  :  61;
    18E  :  4D;
    18F  :  24;
    190  :  50;
    191  :  DB;
    192  :  88;
    193  :  6C;
    194  :  45;
    195  :  CA;
    196  :  BC;
    197  :  9D;
    198  :  E8;
    199  :  C5;
    19A  :  EC;
    19B  :  3C;
    19C  :  3E;
    19D  :  78;
    19E  :  5F;
    19F  :  19;
    1A0  :  99;
    1A1  :  40;
    1A2  :  2F;
    1A3  :  D5;
    1A4  :  75;
    1A5  :  11;
    1A6  :  D9;
    1A7  :  95;
    1A8  :  2D;
    1A9  :  00;
    1AA  :  2C;
    1AB  :  6D;
    1AC  :  BF;
    1AD  :  AF;
    1AE  :  DA;
    1AF  :  9C;
    1B0  :  AB;
    1B1  :  1C;
    1B2  :  06;
    1B3  :  CC;
    1B4  :  18;
    1B5  :  96;
    1B6  :  6B;
    1B7  :  3C;
    1B8  :  F7;
    1B9  :  25;
    1BA  :  73;
    1BB  :  24;
    1BC  :  0C;
    1BD  :  DA;
    1BE  :  40;
    1BF  :  E9;
    1C0  :  52;
    1C1  :  79;
    1C2  :  2F;
    1C3  :  00;
    1C4  :  FC;
    1C5  :  2B;
    1C6  :  26;
    1C7  :  BB;
    1C8  :  B2;
    1C9  :  B9;
    1CA  :  1E;
    1CB  :  C4;
    1CC  :  5A;
    1CD  :  41;
    1CE  :  7F;
    1CF  :  15;
    1D0  :  9F;
    1D1  :  CB;
    1D2  :  F5;
    1D3  :  0B;
    1D4  :  61;
    1D5  :  20;
    1D6  :  4B;
    1D7  :  F9;
    1D8  :  1D;
    1D9  :  72;
    1DA  :  22;
    1DB  :  14;
    1DC  :  08;
    1DD  :  19;
    1DE  :  2F;
    1DF  :  A5;
    1E0  :  BE;
    1E1  :  77;
    1E2  :  B3;
    1E3  :  F0;
    1E4  :  3D;
    1E5  :  D4;
    1E6  :  C5;
    1E7  :  6E;
    1E8  :  09;
    1E9  :  CE;
    1EA  :  08;
    1EB  :  50;
    1EC  :  86;
    1ED  :  5E;
    1EE  :  E8;
    1EF  :  7E;
    1F0  :  E8;
    1F1  :  52;
    1F2  :  DC;
    1F3  :  85;
    1F4  :  FA;
    1F5  :  86;
    1F6  :  03;
    1F7  :  2C;
    1F8  :  F3;
    1F9  :  08;
    1FA  :  6A;
    1FB  :  C3;
    1FC  :  3E;
    1FD  :  3D;
    1FE  :  39;
    1FF  :  E4;
    200  :  06;
    201  :  78;
    202  :  E8;
    203  :  E1;
    204  :  99;
    205  :  4B;
    206  :  C6;
    207  :  F6;
    208  :  10;
    209  :  BF;
    20A  :  E3;
    20B  :  32;
    20C  :  AB;
    20D  :  9D;
    20E  :  5F;
    20F  :  F1;
    210  :  B6;
    211  :  65;
    212  :  9F;
    213  :  E3;
    214  :  DF;
    215  :  17;
    216  :  AA;
    217  :  7D;
    218  :  F1;
    219  :  FC;
    21A  :  16;
    21B  :  D0;
    21C  :  DA;
    21D  :  A0;
    21E  :  4C;
    21F  :  27;
    220  :  64;
    221  :  13;
    222  :  4F;
    223  :  C2;
    224  :  22;
    225  :  11;
    226  :  A2;
    227  :  2C;
    228  :  0B;
    229  :  55;
    22A  :  65;
    22B  :  2D;
    22C  :  EE;
    22D  :  89;
    22E  :  9D;
    22F  :  11;
    230  :  84;
    231  :  BF;
    232  :  B9;
    233  :  33;
    234  :  66;
    235  :  8C;
    236  :  7D;
    237  :  FD;
    238  :  0D;
    239  :  7A;
    23A  :  B4;
    23B  :  0B;
    23C  :  AD;
    23D  :  58;
    23E  :  B6;
    23F  :  77;
    240  :  31;
    241  :  C6;
    242  :  5B;
    243  :  D1;
    244  :  D9;
    245  :  E0;
    246  :  69;
    247  :  6C;
    248  :  D9;
    249  :  33;
    24A  :  B0;
    24B  :  FF;
    24C  :  EA;
    24D  :  E3;
    24E  :  65;
    24F  :  62;
    250  :  52;
    251  :  C5;
    252  :  E6;
    253  :  2E;
    254  :  9B;
    255  :  62;
    256  :  40;
    257  :  D9;
    258  :  6A;
    259  :  F7;
    25A  :  8A;
    25B  :  2B;
    25C  :  51;
    25D  :  1C;
    25E  :  C2;
    25F  :  59;
    260  :  17;
    261  :  EC;
    262  :  62;
    263  :  05;
    264  :  CE;
    265  :  F9;
    266  :  E2;
    267  :  5D;
    268  :  7B;
    269  :  CF;
    26A  :  3D;
    26B  :  F3;
    26C  :  D0;
    26D  :  12;
    26E  :  F2;
    26F  :  16;
    270  :  40;
    271  :  B5;
    272  :  AF;
    273  :  B1;
    274  :  12;
    275  :  1C;
    276  :  DF;
    277  :  A1;
    278  :  8F;
    279  :  14;
    27A  :  01;
    27B  :  09;
    27C  :  44;
    27D  :  7E;
    27E  :  A0;
    27F  :  CB;
    280  :  17;
    281  :  EC;
    282  :  00;
    283  :  B0;
    284  :  80;
    285  :  FA;
    286  :  8C;
    287  :  C3;
    288  :  F3;
    289  :  5B;
    28A  :  2D;
    28B  :  9D;
    28C  :  32;
    28D  :  A0;
    28E  :  A3;
    28F  :  12;
    290  :  AE;
    291  :  4B;
    292  :  15;
    293  :  6E;
    294  :  0A;
    295  :  6D;
    296  :  71;
    297  :  AA;
    298  :  E5;
    299  :  36;
    29A  :  F9;
    29B  :  47;
    29C  :  67;
    29D  :  47;
    29E  :  7E;
    29F  :  AF;
    2A0  :  26;
    2A1  :  31;
    2A2  :  58;
    2A3  :  25;
    2A4  :  87;
    2A5  :  74;
    2A6  :  8A;
    2A7  :  58;
    2A8  :  B1;
    2A9  :  7F;
    2AA  :  2B;
    2AB  :  34;
    2AC  :  05;
    2AD  :  72;
    2AE  :  75;
    2AF  :  D7;
    2B0  :  45;
    2B1  :  D1;
    2B2  :  C7;
    2B3  :  D1;
    2B4  :  1C;
    2B5  :  0D;
    2B6  :  48;
    2B7  :  70;
    2B8  :  EA;
    2B9  :  5E;
    2BA  :  BA;
    2BB  :  CA;
    2BC  :  AA;
    2BD  :  AE;
    2BE  :  25;
    2BF  :  EF;
    2C0  :  06;
    2C1  :  3D;
    2C2  :  28;
    2C3  :  94;
    2C4  :  E8;
    2C5  :  16;
    2C6  :  2D;
    2C7  :  72;
    2C8  :  23;
    2C9  :  31;
    2CA  :  98;
    2CB  :  FE;
    2CC  :  C8;
    2CD  :  76;
    2CE  :  C3;
    2CF  :  48;
    2D0  :  B8;
    2D1  :  78;
    2D2  :  81;
    2D3  :  A5;
    2D4  :  78;
    2D5  :  F3;
    2D6  :  8D;
    2D7  :  D0;
    2D8  :  0B;
    2D9  :  6F;
    2DA  :  66;
    2DB  :  9A;
    2DC  :  7A;
    2DD  :  77;
    2DE  :  EC;
    2DF  :  24;
    2E0  :  D4;
    2E1  :  D5;
    2E2  :  B3;
    2E3  :  88;
    2E4  :  89;
    2E5  :  5A;
    2E6  :  00;
    2E7  :  02;
    2E8  :  D3;
    2E9  :  1D;
    2EA  :  04;
    2EB  :  2C;
    2EC  :  2B;
    2ED  :  5D;
    2EE  :  05;
    2EF  :  E7;
    2F0  :  0D;
    2F1  :  37;
    2F2  :  CB;
    2F3  :  6D;
    2F4  :  8A;
    2F5  :  16;
    2F6  :  15;
    2F7  :  1E;
    2F8  :  CC;
    2F9  :  24;
    2FA  :  64;
    2FB  :  1D;
    2FC  :  72;
    2FD  :  7A;
    2FE  :  A4;
    2FF  :  8E;
END;
