-- Generated by mif_gen Matlab script
-- FPGA SITE - https://fpgasite.blogspot.com

WIDTH=8;
DEPTH=768;

ADDRESS_RADIX=HEX;
DATA_RADIX=HEX;

CONTENT BEGIN
    00  :  33
    01  :  33
    02  :  33
    03  :  33
    04  :  33
    05  :  33
    06  :  33
    07  :  33
    08  :  33
    09  :  33
    0A  :  33
    0B  :  33
    0C  :  33
    0D  :  33
    0E  :  33
    0F  :  33
    10  :  33
    11  :  33
    12  :  33
    13  :  33
    14  :  33
    15  :  33
    16  :  33
    17  :  33
    18  :  33
    19  :  33
    1A  :  33
    1B  :  33
    1C  :  33
    1D  :  33
    1E  :  33
    1F  :  33
    20  :  33
    21  :  33
    22  :  33
    23  :  33
    24  :  33
    25  :  33
    26  :  33
    27  :  33
    28  :  33
    29  :  33
    2A  :  33
    2B  :  33
    2C  :  33
    2D  :  33
    2E  :  33
    2F  :  33
    30  :  33
    31  :  33
    32  :  33
    33  :  33
    34  :  33
    35  :  33
    36  :  33
    37  :  33
    38  :  33
    39  :  33
    3A  :  33
    3B  :  33
    3C  :  33
    3D  :  33
    3E  :  33
    3F  :  33
    40  :  33
    41  :  33
    42  :  33
    43  :  33
    44  :  33
    45  :  33
    46  :  33
    47  :  33
    48  :  33
    49  :  33
    4A  :  33
    4B  :  33
    4C  :  33
    4D  :  33
    4E  :  33
    4F  :  33
    50  :  33
    51  :  33
    52  :  33
    53  :  33
    54  :  33
    55  :  33
    56  :  33
    57  :  33
    58  :  33
    59  :  33
    5A  :  33
    5B  :  33
    5C  :  33
    5D  :  33
    5E  :  33
    5F  :  33
    60  :  33
    61  :  33
    62  :  33
    63  :  33
    64  :  33
    65  :  33
    66  :  33
    67  :  33
    68  :  33
    69  :  33
    6A  :  33
    6B  :  33
    6C  :  33
    6D  :  33
    6E  :  33
    6F  :  33
    70  :  33
    71  :  33
    72  :  33
    73  :  33
    74  :  33
    75  :  33
    76  :  33
    77  :  33
    78  :  33
    79  :  33
    7A  :  33
    7B  :  33
    7C  :  33
    7D  :  33
    7E  :  33
    7F  :  33
    80  :  33
    81  :  33
    82  :  33
    83  :  33
    84  :  33
    85  :  33
    86  :  33
    87  :  33
    88  :  33
    89  :  33
    8A  :  33
    8B  :  33
    8C  :  33
    8D  :  33
    8E  :  33
    8F  :  33
    90  :  33
    91  :  33
    92  :  33
    93  :  33
    94  :  33
    95  :  33
    96  :  33
    97  :  33
    98  :  33
    99  :  33
    9A  :  33
    9B  :  33
    9C  :  33
    9D  :  33
    9E  :  33
    9F  :  33
    A0  :  33
    A1  :  33
    A2  :  33
    A3  :  33
    A4  :  33
    A5  :  33
    A6  :  33
    A7  :  33
    A8  :  33
    A9  :  33
    AA  :  33
    AB  :  33
    AC  :  33
    AD  :  33
    AE  :  33
    AF  :  33
    B0  :  33
    B1  :  33
    B2  :  33
    B3  :  33
    B4  :  33
    B5  :  33
    B6  :  33
    B7  :  33
    B8  :  33
    B9  :  33
    BA  :  33
    BB  :  33
    BC  :  33
    BD  :  33
    BE  :  33
    BF  :  33
    C0  :  33
    C1  :  33
    C2  :  33
    C3  :  33
    C4  :  33
    C5  :  33
    C6  :  33
    C7  :  33
    C8  :  33
    C9  :  33
    CA  :  33
    CB  :  33
    CC  :  33
    CD  :  33
    CE  :  33
    CF  :  33
    D0  :  33
    D1  :  33
    D2  :  33
    D3  :  33
    D4  :  33
    D5  :  33
    D6  :  33
    D7  :  33
    D8  :  33
    D9  :  33
    DA  :  33
    DB  :  33
    DC  :  33
    DD  :  33
    DE  :  33
    DF  :  33
    E0  :  33
    E1  :  33
    E2  :  33
    E3  :  33
    E4  :  33
    E5  :  33
    E6  :  33
    E7  :  33
    E8  :  33
    E9  :  33
    EA  :  33
    EB  :  33
    EC  :  33
    ED  :  33
    EE  :  33
    EF  :  33
    F0  :  33
    F1  :  33
    F2  :  33
    F3  :  33
    F4  :  33
    F5  :  33
    F6  :  33
    F7  :  33
    F8  :  33
    F9  :  33
    FA  :  33
    FB  :  33
    FC  :  33
    FD  :  33
    FE  :  33
    FF  :  33
    100  :  33
    101  :  33
    102  :  33
    103  :  33
    104  :  33
    105  :  33
    106  :  33
    107  :  33
    108  :  33
    109  :  33
    10A  :  33
    10B  :  33
    10C  :  33
    10D  :  33
    10E  :  33
    10F  :  33
    110  :  33
    111  :  33
    112  :  33
    113  :  33
    114  :  33
    115  :  33
    116  :  33
    117  :  33
    118  :  33
    119  :  33
    11A  :  33
    11B  :  33
    11C  :  33
    11D  :  33
    11E  :  33
    11F  :  33
    120  :  33
    121  :  33
    122  :  33
    123  :  33
    124  :  33
    125  :  33
    126  :  33
    127  :  33
    128  :  33
    129  :  33
    12A  :  33
    12B  :  33
    12C  :  33
    12D  :  33
    12E  :  33
    12F  :  33
    130  :  33
    131  :  33
    132  :  33
    133  :  33
    134  :  33
    135  :  33
    136  :  33
    137  :  33
    138  :  33
    139  :  33
    13A  :  33
    13B  :  33
    13C  :  33
    13D  :  33
    13E  :  33
    13F  :  33
    140  :  33
    141  :  33
    142  :  33
    143  :  33
    144  :  33
    145  :  33
    146  :  33
    147  :  33
    148  :  33
    149  :  33
    14A  :  33
    14B  :  33
    14C  :  33
    14D  :  33
    14E  :  33
    14F  :  33
    150  :  33
    151  :  33
    152  :  33
    153  :  33
    154  :  33
    155  :  33
    156  :  33
    157  :  33
    158  :  33
    159  :  33
    15A  :  33
    15B  :  33
    15C  :  33
    15D  :  33
    15E  :  33
    15F  :  33
    160  :  33
    161  :  33
    162  :  33
    163  :  33
    164  :  33
    165  :  33
    166  :  33
    167  :  33
    168  :  33
    169  :  33
    16A  :  33
    16B  :  33
    16C  :  33
    16D  :  33
    16E  :  33
    16F  :  33
    170  :  33
    171  :  33
    172  :  33
    173  :  33
    174  :  33
    175  :  33
    176  :  33
    177  :  33
    178  :  33
    179  :  33
    17A  :  33
    17B  :  33
    17C  :  33
    17D  :  33
    17E  :  33
    17F  :  33
    180  :  33
    181  :  33
    182  :  33
    183  :  33
    184  :  33
    185  :  33
    186  :  33
    187  :  33
    188  :  33
    189  :  33
    18A  :  33
    18B  :  33
    18C  :  33
    18D  :  33
    18E  :  33
    18F  :  33
    190  :  33
    191  :  33
    192  :  33
    193  :  33
    194  :  33
    195  :  33
    196  :  33
    197  :  33
    198  :  33
    199  :  33
    19A  :  33
    19B  :  33
    19C  :  33
    19D  :  33
    19E  :  33
    19F  :  33
    1A0  :  33
    1A1  :  33
    1A2  :  33
    1A3  :  33
    1A4  :  33
    1A5  :  33
    1A6  :  33
    1A7  :  33
    1A8  :  33
    1A9  :  33
    1AA  :  33
    1AB  :  33
    1AC  :  33
    1AD  :  33
    1AE  :  33
    1AF  :  33
    1B0  :  33
    1B1  :  33
    1B2  :  33
    1B3  :  33
    1B4  :  33
    1B5  :  33
    1B6  :  33
    1B7  :  33
    1B8  :  33
    1B9  :  33
    1BA  :  33
    1BB  :  33
    1BC  :  33
    1BD  :  33
    1BE  :  33
    1BF  :  33
    1C0  :  33
    1C1  :  33
    1C2  :  33
    1C3  :  33
    1C4  :  33
    1C5  :  33
    1C6  :  33
    1C7  :  33
    1C8  :  33
    1C9  :  33
    1CA  :  33
    1CB  :  33
    1CC  :  33
    1CD  :  33
    1CE  :  33
    1CF  :  33
    1D0  :  33
    1D1  :  33
    1D2  :  33
    1D3  :  33
    1D4  :  33
    1D5  :  33
    1D6  :  33
    1D7  :  33
    1D8  :  33
    1D9  :  33
    1DA  :  33
    1DB  :  33
    1DC  :  33
    1DD  :  33
    1DE  :  33
    1DF  :  33
    1E0  :  33
    1E1  :  33
    1E2  :  33
    1E3  :  33
    1E4  :  33
    1E5  :  33
    1E6  :  33
    1E7  :  33
    1E8  :  33
    1E9  :  33
    1EA  :  33
    1EB  :  33
    1EC  :  33
    1ED  :  33
    1EE  :  33
    1EF  :  33
    1F0  :  33
    1F1  :  33
    1F2  :  33
    1F3  :  33
    1F4  :  33
    1F5  :  33
    1F6  :  33
    1F7  :  33
    1F8  :  33
    1F9  :  33
    1FA  :  33
    1FB  :  33
    1FC  :  33
    1FD  :  33
    1FE  :  33
    1FF  :  33
    200  :  33
    201  :  33
    202  :  33
    203  :  33
    204  :  33
    205  :  33
    206  :  33
    207  :  33
    208  :  33
    209  :  33
    20A  :  33
    20B  :  33
    20C  :  33
    20D  :  33
    20E  :  33
    20F  :  33
    210  :  33
    211  :  33
    212  :  33
    213  :  33
    214  :  33
    215  :  33
    216  :  33
    217  :  33
    218  :  33
    219  :  33
    21A  :  33
    21B  :  33
    21C  :  33
    21D  :  33
    21E  :  33
    21F  :  33
    220  :  33
    221  :  33
    222  :  33
    223  :  33
    224  :  33
    225  :  33
    226  :  33
    227  :  33
    228  :  33
    229  :  33
    22A  :  33
    22B  :  33
    22C  :  33
    22D  :  33
    22E  :  33
    22F  :  33
    230  :  33
    231  :  33
    232  :  33
    233  :  33
    234  :  33
    235  :  33
    236  :  33
    237  :  33
    238  :  33
    239  :  33
    23A  :  33
    23B  :  33
    23C  :  33
    23D  :  33
    23E  :  33
    23F  :  33
    240  :  33
    241  :  33
    242  :  33
    243  :  33
    244  :  33
    245  :  33
    246  :  33
    247  :  33
    248  :  33
    249  :  33
    24A  :  33
    24B  :  33
    24C  :  33
    24D  :  33
    24E  :  33
    24F  :  33
    250  :  33
    251  :  33
    252  :  33
    253  :  33
    254  :  33
    255  :  33
    256  :  33
    257  :  33
    258  :  33
    259  :  33
    25A  :  33
    25B  :  33
    25C  :  33
    25D  :  33
    25E  :  33
    25F  :  33
    260  :  33
    261  :  33
    262  :  33
    263  :  33
    264  :  33
    265  :  33
    266  :  33
    267  :  33
    268  :  33
    269  :  33
    26A  :  33
    26B  :  33
    26C  :  33
    26D  :  33
    26E  :  33
    26F  :  33
    270  :  33
    271  :  33
    272  :  33
    273  :  33
    274  :  33
    275  :  33
    276  :  33
    277  :  33
    278  :  33
    279  :  33
    27A  :  33
    27B  :  33
    27C  :  33
    27D  :  33
    27E  :  33
    27F  :  33
    280  :  33
    281  :  33
    282  :  33
    283  :  33
    284  :  33
    285  :  33
    286  :  33
    287  :  33
    288  :  33
    289  :  33
    28A  :  33
    28B  :  33
    28C  :  33
    28D  :  33
    28E  :  33
    28F  :  33
    290  :  33
    291  :  33
    292  :  33
    293  :  33
    294  :  33
    295  :  33
    296  :  33
    297  :  33
    298  :  33
    299  :  33
    29A  :  33
    29B  :  33
    29C  :  33
    29D  :  33
    29E  :  33
    29F  :  33
    2A0  :  33
    2A1  :  33
    2A2  :  33
    2A3  :  33
    2A4  :  33
    2A5  :  33
    2A6  :  33
    2A7  :  33
    2A8  :  33
    2A9  :  33
    2AA  :  33
    2AB  :  33
    2AC  :  33
    2AD  :  33
    2AE  :  33
    2AF  :  33
    2B0  :  33
    2B1  :  33
    2B2  :  33
    2B3  :  33
    2B4  :  33
    2B5  :  33
    2B6  :  33
    2B7  :  33
    2B8  :  33
    2B9  :  33
    2BA  :  33
    2BB  :  33
    2BC  :  33
    2BD  :  33
    2BE  :  33
    2BF  :  33
    2C0  :  33
    2C1  :  33
    2C2  :  33
    2C3  :  33
    2C4  :  33
    2C5  :  33
    2C6  :  33
    2C7  :  33
    2C8  :  33
    2C9  :  33
    2CA  :  33
    2CB  :  33
    2CC  :  33
    2CD  :  33
    2CE  :  33
    2CF  :  33
    2D0  :  33
    2D1  :  33
    2D2  :  33
    2D3  :  33
    2D4  :  33
    2D5  :  33
    2D6  :  33
    2D7  :  33
    2D8  :  33
    2D9  :  33
    2DA  :  33
    2DB  :  33
    2DC  :  33
    2DD  :  33
    2DE  :  33
    2DF  :  33
    2E0  :  33
    2E1  :  33
    2E2  :  33
    2E3  :  33
    2E4  :  33
    2E5  :  33
    2E6  :  33
    2E7  :  33
    2E8  :  33
    2E9  :  33
    2EA  :  33
    2EB  :  33
    2EC  :  33
    2ED  :  33
    2EE  :  33
    2EF  :  33
    2F0  :  33
    2F1  :  33
    2F2  :  33
    2F3  :  33
    2F4  :  33
    2F5  :  33
    2F6  :  33
    2F7  :  33
    2F8  :  33
    2F9  :  33
    2FA  :  33
    2FB  :  33
    2FC  :  33
    2FD  :  33
    2FE  :  33
    2FF  :  32
END;
