-- Generated by mif_gen Matlab script
-- FPGA SITE - https://fpgasite.blogspot.com

WIDTH=8;
DEPTH=132;

ADDRESS_RADIX=HEX;
DATA_RADIX=HEX;

CONTENT BEGIN
    00  :  F6
    01  :  B9
    02  :  F2
    03  :  D4
    04  :  C1
    05  :  49
    06  :  78
    07  :  53
    08  :  00
    09  :  46
    0A  :  72
    0B  :  F6
    0C  :  AC
    0D  :  67
    0E  :  2A
    0F  :  46
    10  :  7C
    11  :  B8
    12  :  F0
    13  :  97
    14  :  06
    15  :  B9
    16  :  B1
    17  :  64
    18  :  B5
    19  :  38
    1A  :  86
    1B  :  94
    1C  :  D5
    1D  :  BD
    1E  :  D2
    1F  :  10
    20  :  CC
    21  :  C7
    22  :  FE
    23  :  E6
    24  :  84
    25  :  20
    26  :  6E
    27  :  43
    28  :  CB
    29  :  C7
    2A  :  72
    2B  :  5F
    2C  :  A9
    2D  :  EA
    2E  :  78
    2F  :  24
    30  :  EC
    31  :  8F
    32  :  76
    33  :  E7
    34  :  93
    35  :  62
    36  :  A1
    37  :  63
    38  :  7F
    39  :  81
    3A  :  3C
    3B  :  8A
    3C  :  71
    3D  :  C1
    3E  :  40
    3F  :  B7
    40  :  F2
    41  :  99
    42  :  82
    43  :  9D
    44  :  8D
    45  :  47
    46  :  DB
    47  :  76
    48  :  39
    49  :  2E
    4A  :  42
    4B  :  A2
    4C  :  60
    4D  :  6D
    4E  :  EA
    4F  :  61
    50  :  AA
    51  :  CA
    52  :  CB
    53  :  37
    54  :  E3
    55  :  01
    56  :  3A
    57  :  AC
    58  :  0E
    59  :  9D
    5A  :  5B
    5B  :  FC
    5C  :  7E
    5D  :  22
    5E  :  42
    5F  :  54
    60  :  46
    61  :  FA
    62  :  ED
    63  :  51
    64  :  03
    65  :  ED
    66  :  5D
    67  :  91
    68  :  9D
    69  :  A4
    6A  :  3B
    6B  :  5F
    6C  :  9F
    6D  :  15
    6E  :  9E
    6F  :  59
    70  :  83
    71  :  2D
    72  :  D2
    73  :  2D
    74  :  3F
    75  :  B4
    76  :  D8
    77  :  7C
    78  :  77
    79  :  DC
    7A  :  B7
    7B  :  F8
    7C  :  AC
    7D  :  03
    7E  :  45
    7F  :  B7
    80  :  81
    81  :  EB
    82  :  1B
    83  :  0A
END;
