-- Generated by mif_gen Matlab script
-- FPGA SITE - https://fpgasite.blogspot.com

WIDTH=8;
DEPTH=132;

ADDRESS_RADIX=HEX;
DATA_RADIX=HEX;

CONTENT BEGIN
    00  :  55
    01  :  55
    02  :  55
    03  :  55
    04  :  55
    05  :  55
    06  :  55
    07  :  55
    08  :  55
    09  :  55
    0A  :  55
    0B  :  55
    0C  :  55
    0D  :  55
    0E  :  55
    0F  :  55
    10  :  55
    11  :  55
    12  :  55
    13  :  55
    14  :  55
    15  :  55
    16  :  55
    17  :  55
    18  :  55
    19  :  55
    1A  :  55
    1B  :  55
    1C  :  55
    1D  :  55
    1E  :  55
    1F  :  55
    20  :  55
    21  :  55
    22  :  55
    23  :  55
    24  :  55
    25  :  55
    26  :  55
    27  :  55
    28  :  55
    29  :  55
    2A  :  55
    2B  :  55
    2C  :  55
    2D  :  55
    2E  :  55
    2F  :  55
    30  :  55
    31  :  55
    32  :  55
    33  :  55
    34  :  55
    35  :  55
    36  :  55
    37  :  55
    38  :  55
    39  :  55
    3A  :  55
    3B  :  55
    3C  :  55
    3D  :  55
    3E  :  55
    3F  :  55
    40  :  55
    41  :  55
    42  :  55
    43  :  55
    44  :  55
    45  :  55
    46  :  55
    47  :  55
    48  :  55
    49  :  55
    4A  :  55
    4B  :  55
    4C  :  55
    4D  :  55
    4E  :  55
    4F  :  55
    50  :  55
    51  :  55
    52  :  55
    53  :  55
    54  :  55
    55  :  55
    56  :  55
    57  :  55
    58  :  55
    59  :  55
    5A  :  55
    5B  :  55
    5C  :  55
    5D  :  55
    5E  :  55
    5F  :  55
    60  :  55
    61  :  55
    62  :  55
    63  :  55
    64  :  55
    65  :  55
    66  :  55
    67  :  55
    68  :  55
    69  :  55
    6A  :  55
    6B  :  55
    6C  :  55
    6D  :  55
    6E  :  55
    6F  :  55
    70  :  55
    71  :  55
    72  :  55
    73  :  55
    74  :  55
    75  :  55
    76  :  55
    77  :  55
    78  :  55
    79  :  55
    7A  :  55
    7B  :  55
    7C  :  55
    7D  :  55
    7E  :  55
    7F  :  55
    80  :  55
    81  :  55
    82  :  55
    83  :  54
END;
