-- Generated by mif_gen Matlab script
-- FPGA SITE - https://fpgasite.blogspot.com

WIDTH=8;
DEPTH=132;

ADDRESS_RADIX=HEX;
DATA_RADIX=HEX;

CONTENT BEGIN;
    00  :  33;
    01  :  33;
    02  :  33;
    03  :  33;
    04  :  33;
    05  :  33;
    06  :  33;
    07  :  33;
    08  :  33;
    09  :  33;
    0A  :  33;
    0B  :  33;
    0C  :  33;
    0D  :  33;
    0E  :  33;
    0F  :  33;
    10  :  33;
    11  :  33;
    12  :  33;
    13  :  33;
    14  :  33;
    15  :  33;
    16  :  33;
    17  :  33;
    18  :  33;
    19  :  33;
    1A  :  33;
    1B  :  33;
    1C  :  33;
    1D  :  33;
    1E  :  33;
    1F  :  33;
    20  :  33;
    21  :  33;
    22  :  33;
    23  :  33;
    24  :  33;
    25  :  33;
    26  :  33;
    27  :  33;
    28  :  33;
    29  :  33;
    2A  :  33;
    2B  :  33;
    2C  :  33;
    2D  :  33;
    2E  :  33;
    2F  :  33;
    30  :  33;
    31  :  33;
    32  :  33;
    33  :  33;
    34  :  33;
    35  :  33;
    36  :  33;
    37  :  33;
    38  :  33;
    39  :  33;
    3A  :  33;
    3B  :  33;
    3C  :  33;
    3D  :  33;
    3E  :  33;
    3F  :  33;
    40  :  33;
    41  :  33;
    42  :  33;
    43  :  33;
    44  :  33;
    45  :  33;
    46  :  33;
    47  :  33;
    48  :  33;
    49  :  33;
    4A  :  33;
    4B  :  33;
    4C  :  33;
    4D  :  33;
    4E  :  33;
    4F  :  33;
    50  :  33;
    51  :  33;
    52  :  33;
    53  :  33;
    54  :  33;
    55  :  33;
    56  :  33;
    57  :  33;
    58  :  33;
    59  :  33;
    5A  :  33;
    5B  :  33;
    5C  :  33;
    5D  :  33;
    5E  :  33;
    5F  :  33;
    60  :  33;
    61  :  33;
    62  :  33;
    63  :  33;
    64  :  33;
    65  :  33;
    66  :  33;
    67  :  33;
    68  :  33;
    69  :  33;
    6A  :  33;
    6B  :  33;
    6C  :  33;
    6D  :  33;
    6E  :  33;
    6F  :  33;
    70  :  33;
    71  :  33;
    72  :  33;
    73  :  33;
    74  :  33;
    75  :  33;
    76  :  33;
    77  :  33;
    78  :  33;
    79  :  33;
    7A  :  33;
    7B  :  33;
    7C  :  33;
    7D  :  33;
    7E  :  33;
    7F  :  33;
    80  :  33;
    81  :  33;
    82  :  33;
    83  :  32;
END;
