-- Generated by mif_gen Matlab script
-- FPGA SITE - https://fpgasite.blogspot.com

WIDTH=8;
DEPTH=132;

ADDRESS_RADIX=HEX;
DATA_RADIX=HEX;

CONTENT BEGIN;
    00  :  F3;
    01  :  BF;
    02  :  C0;
    03  :  8A;
    04  :  BE;
    05  :  40;
    06  :  79;
    07  :  C9;
    08  :  1E;
    09  :  E9;
    0A  :  7D;
    0B  :  11;
    0C  :  43;
    0D  :  93;
    0E  :  99;
    0F  :  71;
    10  :  F4;
    11  :  8F;
    12  :  59;
    13  :  65;
    14  :  2A;
    15  :  AE;
    16  :  42;
    17  :  E7;
    18  :  A1;
    19  :  ED;
    1A  :  AE;
    1B  :  35;
    1C  :  82;
    1D  :  C5;
    1E  :  24;
    1F  :  8F;
    20  :  8A;
    21  :  3D;
    22  :  3C;
    23  :  DC;
    24  :  A4;
    25  :  D6;
    26  :  62;
    27  :  EF;
    28  :  A6;
    29  :  A1;
    2A  :  78;
    2B  :  A2;
    2C  :  1C;
    2D  :  00;
    2E  :  8A;
    2F  :  53;
    30  :  71;
    31  :  52;
    32  :  35;
    33  :  CA;
    34  :  EE;
    35  :  55;
    36  :  46;
    37  :  30;
    38  :  F6;
    39  :  7E;
    3A  :  29;
    3B  :  8A;
    3C  :  9A;
    3D  :  FF;
    3E  :  6A;
    3F  :  09;
    40  :  08;
    41  :  B2;
    42  :  2F;
    43  :  40;
    44  :  07;
    45  :  36;
    46  :  50;
    47  :  74;
    48  :  D8;
    49  :  2D;
    4A  :  8E;
    4B  :  3F;
    4C  :  AC;
    4D  :  59;
    4E  :  25;
    4F  :  16;
    50  :  E4;
    51  :  A2;
    52  :  81;
    53  :  12;
    54  :  82;
    55  :  6D;
    56  :  04;
    57  :  AD;
    58  :  A6;
    59  :  07;
    5A  :  71;
    5B  :  16;
    5C  :  C8;
    5D  :  93;
    5E  :  D2;
    5F  :  EF;
    60  :  97;
    61  :  DD;
    62  :  5E;
    63  :  D5;
    64  :  5F;
    65  :  E8;
    66  :  E8;
    67  :  AB;
    68  :  70;
    69  :  00;
    6A  :  1A;
    6B  :  B4;
    6C  :  68;
    6D  :  17;
    6E  :  DC;
    6F  :  BF;
    70  :  BE;
    71  :  C7;
    72  :  1F;
    73  :  15;
    74  :  9C;
    75  :  C1;
    76  :  AC;
    77  :  A3;
    78  :  7F;
    79  :  5B;
    7A  :  68;
    7B  :  08;
    7C  :  20;
    7D  :  B2;
    7E  :  CA;
    7F  :  BF;
    80  :  E2;
    81  :  0D;
    82  :  C4;
    83  :  5A;
END;
