-- Generated by mif_gen Matlab script
-- FPGA SITE - https://fpgasite.blogspot.com

WIDTH=8;
DEPTH=768;

ADDRESS_RADIX=HEX;
DATA_RADIX=HEX;

CONTENT BEGIN
    00  :  9D
    01  :  1D
    02  :  03
    03  :  88
    04  :  17
    05  :  3F
    06  :  58
    07  :  FD
    08  :  59
    09  :  7A
    0A  :  DA
    0B  :  65
    0C  :  93
    0D  :  23
    0E  :  E3
    0F  :  F1
    10  :  47
    11  :  5E
    12  :  7F
    13  :  CE
    14  :  EA
    15  :  FA
    16  :  F7
    17  :  01
    18  :  F3
    19  :  8F
    1A  :  6A
    1B  :  49
    1C  :  F0
    1D  :  7D
    1E  :  41
    1F  :  D9
    20  :  81
    21  :  AC
    22  :  63
    23  :  15
    24  :  20
    25  :  86
    26  :  EA
    27  :  A4
    28  :  94
    29  :  D7
    2A  :  83
    2B  :  F4
    2C  :  94
    2D  :  D2
    2E  :  FD
    2F  :  4C
    30  :  D0
    31  :  43
    32  :  E1
    33  :  3E
    34  :  4E
    35  :  17
    36  :  C2
    37  :  3B
    38  :  5F
    39  :  91
    3A  :  EB
    3B  :  3B
    3C  :  2A
    3D  :  D2
    3E  :  DA
    3F  :  4F
    40  :  F5
    41  :  77
    42  :  11
    43  :  A9
    44  :  3E
    45  :  E0
    46  :  EC
    47  :  AD
    48  :  19
    49  :  F8
    4A  :  B6
    4B  :  1E
    4C  :  3E
    4D  :  13
    4E  :  E1
    4F  :  1B
    50  :  D2
    51  :  EB
    52  :  54
    53  :  E8
    54  :  54
    55  :  C4
    56  :  83
    57  :  57
    58  :  58
    59  :  17
    5A  :  5A
    5B  :  0A
    5C  :  32
    5D  :  E8
    5E  :  FF
    5F  :  CE
    60  :  FC
    61  :  00
    62  :  00
    63  :  03
    64  :  23
    65  :  2E
    66  :  6A
    67  :  EC
    68  :  95
    69  :  F3
    6A  :  19
    6B  :  34
    6C  :  C3
    6D  :  59
    6E  :  0A
    6F  :  0A
    70  :  73
    71  :  60
    72  :  00
    73  :  B9
    74  :  6A
    75  :  9F
    76  :  F4
    77  :  1D
    78  :  F3
    79  :  D7
    7A  :  49
    7B  :  84
    7C  :  27
    7D  :  40
    7E  :  D7
    7F  :  5D
    80  :  52
    81  :  60
    82  :  88
    83  :  49
    84  :  9E
    85  :  9E
    86  :  3B
    87  :  27
    88  :  36
    89  :  00
    8A  :  C5
    8B  :  9F
    8C  :  D4
    8D  :  B0
    8E  :  47
    8F  :  71
    90  :  89
    91  :  C2
    92  :  C4
    93  :  A3
    94  :  D0
    95  :  50
    96  :  60
    97  :  65
    98  :  B3
    99  :  07
    9A  :  C4
    9B  :  75
    9C  :  C7
    9D  :  C3
    9E  :  3A
    9F  :  64
    A0  :  7F
    A1  :  EC
    A2  :  C7
    A3  :  47
    A4  :  39
    A5  :  7A
    A6  :  36
    A7  :  4D
    A8  :  CB
    A9  :  5D
    AA  :  3C
    AB  :  01
    AC  :  30
    AD  :  DF
    AE  :  74
    AF  :  C6
    B0  :  3C
    B1  :  86
    B2  :  EB
    B3  :  08
    B4  :  58
    B5  :  00
    B6  :  E3
    B7  :  DF
    B8  :  D5
    B9  :  81
    BA  :  7C
    BB  :  77
    BC  :  A6
    BD  :  9D
    BE  :  94
    BF  :  C9
    C0  :  6E
    C1  :  75
    C2  :  91
    C3  :  62
    C4  :  A4
    C5  :  B5
    C6  :  BE
    C7  :  46
    C8  :  5E
    C9  :  87
    CA  :  CB
    CB  :  38
    CC  :  C4
    CD  :  2A
    CE  :  59
    CF  :  46
    D0  :  DE
    D1  :  0B
    D2  :  E0
    D3  :  6C
    D4  :  2E
    D5  :  73
    D6  :  CD
    D7  :  2E
    D8  :  FD
    D9  :  65
    DA  :  CA
    DB  :  CD
    DC  :  F2
    DD  :  18
    DE  :  33
    DF  :  B8
    E0  :  B0
    E1  :  FF
    E2  :  4A
    E3  :  BE
    E4  :  22
    E5  :  5B
    E6  :  0A
    E7  :  F2
    E8  :  43
    E9  :  B7
    EA  :  E9
    EB  :  4E
    EC  :  5C
    ED  :  99
    EE  :  52
    EF  :  A5
    F0  :  42
    F1  :  31
    F2  :  17
    F3  :  7C
    F4  :  11
    F5  :  84
    F6  :  16
    F7  :  C7
    F8  :  1C
    F9  :  18
    FA  :  7C
    FB  :  48
    FC  :  D5
    FD  :  89
    FE  :  A8
    FF  :  3A
    100  :  3E
    101  :  83
    102  :  7B
    103  :  3E
    104  :  DC
    105  :  D5
    106  :  7C
    107  :  75
    108  :  12
    109  :  87
    10A  :  03
    10B  :  BC
    10C  :  6F
    10D  :  24
    10E  :  FD
    10F  :  7B
    110  :  1F
    111  :  61
    112  :  F9
    113  :  90
    114  :  E0
    115  :  2B
    116  :  BD
    117  :  A8
    118  :  DD
    119  :  F1
    11A  :  EB
    11B  :  46
    11C  :  2F
    11D  :  3C
    11E  :  BF
    11F  :  29
    120  :  3F
    121  :  8B
    122  :  18
    123  :  DD
    124  :  D6
    125  :  09
    126  :  E1
    127  :  58
    128  :  B8
    129  :  1B
    12A  :  1C
    12B  :  FC
    12C  :  A3
    12D  :  45
    12E  :  9F
    12F  :  12
    130  :  76
    131  :  65
    132  :  06
    133  :  1D
    134  :  BC
    135  :  0C
    136  :  65
    137  :  C1
    138  :  69
    139  :  13
    13A  :  CD
    13B  :  2B
    13C  :  78
    13D  :  7F
    13E  :  26
    13F  :  6E
    140  :  F9
    141  :  F3
    142  :  BA
    143  :  2E
    144  :  8A
    145  :  AF
    146  :  49
    147  :  BC
    148  :  34
    149  :  1F
    14A  :  F9
    14B  :  6C
    14C  :  C8
    14D  :  1C
    14E  :  8B
    14F  :  B3
    150  :  0B
    151  :  57
    152  :  CC
    153  :  68
    154  :  68
    155  :  70
    156  :  EC
    157  :  05
    158  :  E0
    159  :  20
    15A  :  51
    15B  :  2E
    15C  :  AC
    15D  :  8F
    15E  :  54
    15F  :  07
    160  :  40
    161  :  37
    162  :  39
    163  :  06
    164  :  B2
    165  :  5A
    166  :  BD
    167  :  E9
    168  :  53
    169  :  FD
    16A  :  D8
    16B  :  75
    16C  :  58
    16D  :  26
    16E  :  E2
    16F  :  5D
    170  :  A2
    171  :  9D
    172  :  45
    173  :  84
    174  :  30
    175  :  96
    176  :  9E
    177  :  6A
    178  :  3A
    179  :  31
    17A  :  F7
    17B  :  1D
    17C  :  A2
    17D  :  E0
    17E  :  EA
    17F  :  1A
    180  :  32
    181  :  9C
    182  :  45
    183  :  37
    184  :  EC
    185  :  DF
    186  :  02
    187  :  C4
    188  :  61
    189  :  C7
    18A  :  37
    18B  :  8F
    18C  :  D7
    18D  :  02
    18E  :  44
    18F  :  9D
    190  :  81
    191  :  98
    192  :  CE
    193  :  97
    194  :  B1
    195  :  C5
    196  :  74
    197  :  1D
    198  :  10
    199  :  57
    19A  :  2E
    19B  :  A5
    19C  :  06
    19D  :  45
    19E  :  94
    19F  :  6E
    1A0  :  34
    1A1  :  56
    1A2  :  F7
    1A3  :  F6
    1A4  :  1B
    1A5  :  87
    1A6  :  16
    1A7  :  4F
    1A8  :  93
    1A9  :  90
    1AA  :  51
    1AB  :  CD
    1AC  :  5F
    1AD  :  F0
    1AE  :  34
    1AF  :  5F
    1B0  :  EC
    1B1  :  E7
    1B2  :  B9
    1B3  :  0D
    1B4  :  F7
    1B5  :  0F
    1B6  :  2E
    1B7  :  1A
    1B8  :  1F
    1B9  :  8A
    1BA  :  1D
    1BB  :  DD
    1BC  :  C3
    1BD  :  37
    1BE  :  BC
    1BF  :  4A
    1C0  :  D8
    1C1  :  0C
    1C2  :  02
    1C3  :  DF
    1C4  :  92
    1C5  :  AC
    1C6  :  5F
    1C7  :  AF
    1C8  :  D4
    1C9  :  A8
    1CA  :  8B
    1CB  :  4B
    1CC  :  EE
    1CD  :  8A
    1CE  :  56
    1CF  :  B3
    1D0  :  BE
    1D1  :  1C
    1D2  :  78
    1D3  :  9E
    1D4  :  4E
    1D5  :  09
    1D6  :  A5
    1D7  :  84
    1D8  :  36
    1D9  :  96
    1DA  :  C3
    1DB  :  B9
    1DC  :  E4
    1DD  :  EA
    1DE  :  1C
    1DF  :  C7
    1E0  :  05
    1E1  :  48
    1E2  :  E2
    1E3  :  D3
    1E4  :  36
    1E5  :  E5
    1E6  :  30
    1E7  :  8D
    1E8  :  88
    1E9  :  D0
    1EA  :  D8
    1EB  :  58
    1EC  :  43
    1ED  :  4C
    1EE  :  94
    1EF  :  95
    1F0  :  0B
    1F1  :  59
    1F2  :  B3
    1F3  :  DD
    1F4  :  EA
    1F5  :  65
    1F6  :  76
    1F7  :  19
    1F8  :  B8
    1F9  :  6D
    1FA  :  68
    1FB  :  61
    1FC  :  E5
    1FD  :  BC
    1FE  :  F8
    1FF  :  C7
    200  :  61
    201  :  A6
    202  :  2A
    203  :  25
    204  :  6B
    205  :  3C
    206  :  5F
    207  :  E2
    208  :  3F
    209  :  4E
    20A  :  52
    20B  :  6E
    20C  :  B1
    20D  :  06
    20E  :  C2
    20F  :  34
    210  :  CD
    211  :  B2
    212  :  C7
    213  :  F4
    214  :  84
    215  :  D3
    216  :  E4
    217  :  83
    218  :  BB
    219  :  44
    21A  :  3A
    21B  :  23
    21C  :  47
    21D  :  7E
    21E  :  7E
    21F  :  E2
    220  :  29
    221  :  3B
    222  :  29
    223  :  8F
    224  :  14
    225  :  27
    226  :  50
    227  :  2E
    228  :  3E
    229  :  96
    22A  :  2D
    22B  :  84
    22C  :  95
    22D  :  5F
    22E  :  AC
    22F  :  AA
    230  :  C0
    231  :  6C
    232  :  42
    233  :  48
    234  :  BD
    235  :  4D
    236  :  E0
    237  :  9D
    238  :  4A
    239  :  F2
    23A  :  72
    23B  :  E5
    23C  :  95
    23D  :  25
    23E  :  AE
    23F  :  27
    240  :  5E
    241  :  B5
    242  :  EC
    243  :  64
    244  :  82
    245  :  E8
    246  :  2D
    247  :  36
    248  :  18
    249  :  76
    24A  :  42
    24B  :  32
    24C  :  51
    24D  :  B1
    24E  :  2A
    24F  :  7F
    250  :  4A
    251  :  94
    252  :  BA
    253  :  6E
    254  :  C1
    255  :  77
    256  :  68
    257  :  BF
    258  :  97
    259  :  0B
    25A  :  8A
    25B  :  63
    25C  :  64
    25D  :  DC
    25E  :  3C
    25F  :  AF
    260  :  E0
    261  :  0A
    262  :  FE
    263  :  C3
    264  :  03
    265  :  56
    266  :  75
    267  :  24
    268  :  D6
    269  :  BE
    26A  :  0A
    26B  :  68
    26C  :  69
    26D  :  E9
    26E  :  AE
    26F  :  38
    270  :  5D
    271  :  03
    272  :  05
    273  :  B4
    274  :  78
    275  :  F8
    276  :  2E
    277  :  CF
    278  :  1E
    279  :  AD
    27A  :  E0
    27B  :  A3
    27C  :  D0
    27D  :  12
    27E  :  45
    27F  :  C7
    280  :  66
    281  :  D6
    282  :  85
    283  :  44
    284  :  B9
    285  :  A4
    286  :  18
    287  :  93
    288  :  56
    289  :  F5
    28A  :  25
    28B  :  91
    28C  :  49
    28D  :  27
    28E  :  91
    28F  :  30
    290  :  8F
    291  :  2C
    292  :  3F
    293  :  81
    294  :  76
    295  :  F7
    296  :  58
    297  :  D4
    298  :  CD
    299  :  AD
    29A  :  BC
    29B  :  17
    29C  :  C7
    29D  :  ED
    29E  :  1F
    29F  :  2F
    2A0  :  2D
    2A1  :  03
    2A2  :  C9
    2A3  :  2A
    2A4  :  0C
    2A5  :  33
    2A6  :  11
    2A7  :  71
    2A8  :  E7
    2A9  :  03
    2AA  :  CB
    2AB  :  5B
    2AC  :  F5
    2AD  :  05
    2AE  :  99
    2AF  :  47
    2B0  :  5C
    2B1  :  0F
    2B2  :  8C
    2B3  :  1C
    2B4  :  0E
    2B5  :  E1
    2B6  :  67
    2B7  :  3B
    2B8  :  7A
    2B9  :  8D
    2BA  :  FA
    2BB  :  72
    2BC  :  0A
    2BD  :  D4
    2BE  :  54
    2BF  :  BB
    2C0  :  C7
    2C1  :  AA
    2C2  :  CC
    2C3  :  9A
    2C4  :  6B
    2C5  :  09
    2C6  :  C4
    2C7  :  FF
    2C8  :  F8
    2C9  :  40
    2CA  :  5E
    2CB  :  9F
    2CC  :  FA
    2CD  :  41
    2CE  :  02
    2CF  :  84
    2D0  :  A4
    2D1  :  E4
    2D2  :  A2
    2D3  :  7A
    2D4  :  D8
    2D5  :  4E
    2D6  :  E1
    2D7  :  E4
    2D8  :  36
    2D9  :  0E
    2DA  :  A2
    2DB  :  03
    2DC  :  3F
    2DD  :  10
    2DE  :  67
    2DF  :  B1
    2E0  :  2E
    2E1  :  24
    2E2  :  D4
    2E3  :  28
    2E4  :  9F
    2E5  :  EB
    2E6  :  82
    2E7  :  1E
    2E8  :  17
    2E9  :  31
    2EA  :  1E
    2EB  :  CE
    2EC  :  30
    2ED  :  E9
    2EE  :  F4
    2EF  :  3B
    2F0  :  CB
    2F1  :  19
    2F2  :  34
    2F3  :  0D
    2F4  :  F1
    2F5  :  DB
    2F6  :  6D
    2F7  :  BB
    2F8  :  55
    2F9  :  CF
    2FA  :  90
    2FB  :  BC
    2FC  :  70
    2FD  :  47
    2FE  :  AF
    2FF  :  B6
END;
