-- Generated by mif_gen Matlab script
-- FPGA SITE - https://fpgasite.blogspot.com

WIDTH=8;
DEPTH=768;

ADDRESS_RADIX=HEX;
DATA_RADIX=HEX;

CONTENT BEGIN;
    00  :  C0;
    01  :  AC;
    02  :  89;
    03  :  4B;
    04  :  EC;
    05  :  82;
    06  :  52;
    07  :  36;
    08  :  7E;
    09  :  EE;
    0A  :  F9;
    0B  :  9E;
    0C  :  4E;
    0D  :  0C;
    0E  :  A7;
    0F  :  CC;
    10  :  37;
    11  :  9E;
    12  :  C3;
    13  :  3F;
    14  :  70;
    15  :  0A;
    16  :  5D;
    17  :  D7;
    18  :  27;
    19  :  4D;
    1A  :  F8;
    1B  :  DB;
    1C  :  FF;
    1D  :  C5;
    1E  :  B0;
    1F  :  2C;
    20  :  8C;
    21  :  D0;
    22  :  FA;
    23  :  58;
    24  :  61;
    25  :  4C;
    26  :  8C;
    27  :  B7;
    28  :  4B;
    29  :  49;
    2A  :  F2;
    2B  :  DD;
    2C  :  EA;
    2D  :  60;
    2E  :  72;
    2F  :  19;
    30  :  B0;
    31  :  65;
    32  :  68;
    33  :  E5;
    34  :  F5;
    35  :  9C;
    36  :  B9;
    37  :  D7;
    38  :  61;
    39  :  A6;
    3A  :  2A;
    3B  :  25;
    3C  :  AB;
    3D  :  DE;
    3E  :  5F;
    3F  :  C0;
    40  :  2F;
    41  :  4E;
    42  :  70;
    43  :  76;
    44  :  91;
    45  :  06;
    46  :  CA;
    47  :  14;
    48  :  49;
    49  :  B2;
    4A  :  86;
    4B  :  F4;
    4C  :  A4;
    4D  :  D2;
    4E  :  D4;
    4F  :  CB;
    50  :  FB;
    51  :  56;
    52  :  3A;
    53  :  A6;
    54  :  43;
    55  :  7A;
    56  :  3F;
    57  :  B2;
    58  :  03;
    59  :  33;
    5A  :  21;
    5B  :  8D;
    5C  :  95;
    5D  :  47;
    5E  :  50;
    5F  :  0E;
    60  :  3E;
    61  :  92;
    62  :  09;
    63  :  94;
    64  :  9D;
    65  :  47;
    66  :  AC;
    67  :  AC;
    68  :  D0;
    69  :  CC;
    6A  :  03;
    6B  :  58;
    6C  :  BD;
    6D  :  4C;
    6E  :  C6;
    6F  :  DD;
    70  :  43;
    71  :  62;
    72  :  F2;
    73  :  C6;
    74  :  95;
    75  :  25;
    76  :  EE;
    77  :  67;
    78  :  74;
    79  :  BD;
    7A  :  E4;
    7B  :  63;
    7C  :  02;
    7D  :  BA;
    7E  :  AC;
    7F  :  36;
    80  :  0A;
    81  :  77;
    82  :  46;
    83  :  7A;
    84  :  11;
    85  :  B9;
    86  :  AA;
    87  :  DA;
    88  :  5A;
    89  :  D4;
    8A  :  FB;
    8B  :  7E;
    8C  :  C3;
    8D  :  7F;
    8E  :  50;
    8F  :  B7;
    90  :  1F;
    91  :  CB;
    92  :  0A;
    93  :  41;
    94  :  64;
    95  :  D9;
    96  :  5E;
    97  :  BF;
    98  :  C3;
    99  :  02;
    9A  :  FE;
    9B  :  65;
    9C  :  87;
    9D  :  B6;
    9E  :  75;
    9F  :  34;
    A0  :  F4;
    A1  :  BF;
    A2  :  34;
    A3  :  28;
    A4  :  60;
    A5  :  69;
    A6  :  AE;
    A7  :  3E;
    A8  :  D9;
    A9  :  43;
    AA  :  47;
    AB  :  F4;
    AC  :  78;
    AD  :  F0;
    AE  :  2A;
    AF  :  C3;
    B0  :  DF;
    B1  :  CD;
    B2  :  E0;
    B3  :  83;
    B4  :  D4;
    B5  :  12;
    B6  :  65;
    B7  :  D7;
    B8  :  07;
    B9  :  DE;
    BA  :  05;
    BB  :  47;
    BC  :  29;
    BD  :  46;
    BE  :  58;
    BF  :  93;
    C0  :  76;
    C1  :  F0;
    C2  :  05;
    C3  :  91;
    C4  :  41;
    C5  :  27;
    C6  :  11;
    C7  :  92;
    C8  :  9F;
    C9  :  2C;
    CA  :  7E;
    CB  :  81;
    CC  :  5C;
    CD  :  FE;
    CE  :  54;
    CF  :  55;
    D0  :  0D;
    D1  :  3F;
    D2  :  BC;
    D3  :  17;
    D4  :  D5;
    D5  :  ED;
    D6  :  09;
    D7  :  2F;
    D8  :  44;
    D9  :  0B;
    DA  :  49;
    DB  :  8B;
    DC  :  98;
    DD  :  73;
    DE  :  51;
    DF  :  61;
    E0  :  E5;
    E1  :  07;
    E2  :  D7;
    E3  :  57;
    E4  :  3C;
    E5  :  15;
    E6  :  19;
    E7  :  67;
    E8  :  5C;
    E9  :  0B;
    EA  :  CF;
    EB  :  4C;
    EC  :  27;
    ED  :  E1;
    EE  :  7B;
    EF  :  19;
    F0  :  7A;
    F1  :  7D;
    F2  :  FA;
    F3  :  62;
    F4  :  08;
    F5  :  D0;
    F6  :  6C;
    F7  :  B3;
    F8  :  8F;
    F9  :  2A;
    FA  :  4C;
    FB  :  BB;
    FC  :  FB;
    FD  :  09;
    FE  :  C5;
    FF  :  AF;
    100  :  F8;
    101  :  49;
    102  :  62;
    103  :  93;
    104  :  BB;
    105  :  81;
    106  :  03;
    107  :  24;
    108  :  B4;
    109  :  E4;
    10A  :  80;
    10B  :  72;
    10C  :  F3;
    10D  :  46;
    10E  :  E1;
    10F  :  44;
    110  :  B6;
    111  :  4E;
    112  :  A3;
    113  :  03;
    114  :  1F;
    115  :  11;
    116  :  4F;
    117  :  F9;
    118  :  27;
    119  :  06;
    11A  :  54;
    11B  :  2B;
    11C  :  9F;
    11D  :  EB;
    11E  :  82;
    11F  :  5E;
    120  :  17;
    121  :  39;
    122  :  06;
    123  :  CC;
    124  :  B0;
    125  :  4B;
    126  :  F5;
    127  :  3B;
    128  :  DB;
    129  :  1D;
    12A  :  00;
    12B  :  0D;
    12C  :  90;
    12D  :  CB;
    12E  :  6D;
    12F  :  1E;
    130  :  D1;
    131  :  8F;
    132  :  D1;
    133  :  BC;
    134  :  70;
    135  :  4E;
    136  :  8F;
    137  :  B3;
    138  :  DC;
    139  :  4F;
    13A  :  83;
    13B  :  AA;
    13C  :  17;
    13D  :  3B;
    13E  :  5A;
    13F  :  ED;
    140  :  51;
    141  :  72;
    142  :  DE;
    143  :  E7;
    144  :  D3;
    145  :  D3;
    146  :  A2;
    147  :  E1;
    148  :  47;
    149  :  5E;
    14A  :  4D;
    14B  :  C6;
    14C  :  A2;
    14D  :  F2;
    14E  :  77;
    14F  :  02;
    150  :  F7;
    151  :  8F;
    152  :  6B;
    153  :  59;
    154  :  F2;
    155  :  7D;
    156  :  61;
    157  :  DD;
    158  :  09;
    159  :  BE;
    15A  :  63;
    15B  :  B5;
    15C  :  34;
    15D  :  87;
    15E  :  E8;
    15F  :  EC;
    160  :  94;
    161  :  D7;
    162  :  83;
    163  :  F5;
    164  :  04;
    165  :  F2;
    166  :  BD;
    167  :  4C;
    168  :  D0;
    169  :  46;
    16A  :  CD;
    16B  :  36;
    16C  :  0F;
    16D  :  8D;
    16E  :  C2;
    16F  :  98;
    170  :  DB;
    171  :  91;
    172  :  AA;
    173  :  3B;
    174  :  28;
    175  :  DB;
    176  :  C2;
    177  :  4F;
    178  :  35;
    179  :  85;
    17A  :  10;
    17B  :  A9;
    17C  :  2A;
    17D  :  E4;
    17E  :  AA;
    17F  :  ED;
    180  :  70;
    181  :  E8;
    182  :  36;
    183  :  BB;
    184  :  BA;
    185  :  31;
    186  :  E0;
    187  :  1B;
    188  :  D2;
    189  :  EF;
    18A  :  4C;
    18B  :  E0;
    18C  :  1D;
    18D  :  84;
    18E  :  83;
    18F  :  75;
    190  :  48;
    191  :  13;
    192  :  38;
    193  :  1A;
    194  :  18;
    195  :  E0;
    196  :  EF;
    197  :  4E;
    198  :  FC;
    199  :  B0;
    19A  :  01;
    19B  :  03;
    19C  :  31;
    19D  :  2E;
    19E  :  7A;
    19F  :  AC;
    1A0  :  9D;
    1A1  :  F3;
    1A2  :  99;
    1A3  :  97;
    1A4  :  D3;
    1A5  :  39;
    1A6  :  4B;
    1A7  :  1A;
    1A8  :  71;
    1A9  :  61;
    1AA  :  00;
    1AB  :  BD;
    1AC  :  63;
    1AD  :  FF;
    1AE  :  74;
    1AF  :  1E;
    1B0  :  F3;
    1B1  :  D6;
    1B2  :  09;
    1B3  :  D4;
    1B4  :  0C;
    1B5  :  48;
    1B6  :  CB;
    1B7  :  FD;
    1B8  :  D6;
    1B9  :  C0;
    1BA  :  C9;
    1BB  :  59;
    1BC  :  9E;
    1BD  :  9E;
    1BE  :  39;
    1BF  :  27;
    1C0  :  76;
    1C1  :  02;
    1C2  :  C5;
    1C3  :  BF;
    1C4  :  C4;
    1C5  :  F0;
    1C6  :  47;
    1C7  :  61;
    1C8  :  AB;
    1C9  :  C3;
    1CA  :  EC;
    1CB  :  A3;
    1CC  :  91;
    1CD  :  32;
    1CE  :  E1;
    1CF  :  65;
    1D0  :  B3;
    1D1  :  06;
    1D2  :  E4;
    1D3  :  65;
    1D4  :  A5;
    1D5  :  CB;
    1D6  :  BA;
    1D7  :  C6;
    1D8  :  7B;
    1D9  :  6C;
    1DA  :  C7;
    1DB  :  57;
    1DC  :  39;
    1DD  :  7F;
    1DE  :  06;
    1DF  :  45;
    1E0  :  C2;
    1E1  :  CD;
    1E2  :  3C;
    1E3  :  83;
    1E4  :  24;
    1E5  :  DF;
    1E6  :  15;
    1E7  :  C6;
    1E8  :  36;
    1E9  :  87;
    1EA  :  E7;
    1EB  :  0F;
    1EC  :  98;
    1ED  :  82;
    1EE  :  62;
    1EF  :  DF;
    1F0  :  C5;
    1F1  :  81;
    1F2  :  6C;
    1F3  :  77;
    1F4  :  EE;
    1F5  :  9D;
    1F6  :  14;
    1F7  :  C9;
    1F8  :  FA;
    1F9  :  75;
    1FA  :  D1;
    1FB  :  62;
    1FC  :  A4;
    1FD  :  B9;
    1FE  :  AC;
    1FF  :  42;
    200  :  9F;
    201  :  95;
    202  :  4B;
    203  :  3A;
    204  :  D0;
    205  :  2A;
    206  :  19;
    207  :  46;
    208  :  D4;
    209  :  0B;
    20A  :  F0;
    20B  :  ED;
    20C  :  2E;
    20D  :  13;
    20E  :  CD;
    20F  :  2E;
    210  :  FF;
    211  :  60;
    212  :  EE;
    213  :  85;
    214  :  B2;
    215  :  12;
    216  :  33;
    217  :  BE;
    218  :  A4;
    219  :  FF;
    21A  :  4A;
    21B  :  EE;
    21C  :  22;
    21D  :  5A;
    21E  :  2A;
    21F  :  F2;
    220  :  83;
    221  :  B5;
    222  :  E9;
    223  :  6F;
    224  :  5C;
    225  :  98;
    226  :  50;
    227  :  AD;
    228  :  61;
    229  :  39;
    22A  :  9F;
    22B  :  F9;
    22C  :  81;
    22D  :  C4;
    22E  :  17;
    22F  :  D7;
    230  :  3E;
    231  :  1D;
    232  :  68;
    233  :  08;
    234  :  DC;
    235  :  39;
    236  :  A8;
    237  :  BB;
    238  :  2A;
    239  :  83;
    23A  :  39;
    23B  :  6E;
    23C  :  FC;
    23D  :  D4;
    23E  :  60;
    23F  :  75;
    240  :  52;
    241  :  27;
    242  :  83;
    243  :  BC;
    244  :  6B;
    245  :  21;
    246  :  FB;
    247  :  73;
    248  :  7F;
    249  :  79;
    24A  :  F1;
    24B  :  B7;
    24C  :  60;
    24D  :  69;
    24E  :  BD;
    24F  :  B8;
    250  :  DF;
    251  :  F9;
    252  :  F1;
    253  :  4E;
    254  :  26;
    255  :  5C;
    256  :  BF;
    257  :  2A;
    258  :  3B;
    259  :  8B;
    25A  :  3A;
    25B  :  CD;
    25C  :  D5;
    25D  :  01;
    25E  :  FD;
    25F  :  F2;
    260  :  F8;
    261  :  39;
    262  :  9C;
    263  :  FC;
    264  :  A1;
    265  :  40;
    266  :  BD;
    267  :  52;
    268  :  3F;
    269  :  75;
    26A  :  86;
    26B  :  1D;
    26C  :  B8;
    26D  :  4C;
    26E  :  25;
    26F  :  C1;
    270  :  6B;
    271  :  13;
    272  :  FD;
    273  :  2B;
    274  :  F1;
    275  :  3D;
    276  :  A6;
    277  :  4C;
    278  :  E9;
    279  :  F6;
    27A  :  98;
    27B  :  2E;
    27C  :  8B;
    27D  :  A7;
    27E  :  55;
    27F  :  BE;
    280  :  A4;
    281  :  BD;
    282  :  F8;
    283  :  6C;
    284  :  C8;
    285  :  19;
    286  :  89;
    287  :  F3;
    288  :  4B;
    289  :  CF;
    28A  :  4C;
    28B  :  6A;
    28C  :  6C;
    28D  :  74;
    28E  :  EF;
    28F  :  05;
    290  :  E2;
    291  :  29;
    292  :  5D;
    293  :  26;
    294  :  AC;
    295  :  6D;
    296  :  54;
    297  :  27;
    298  :  54;
    299  :  36;
    29A  :  3F;
    29B  :  0E;
    29C  :  B3;
    29D  :  5A;
    29E  :  BD;
    29F  :  C9;
    2A0  :  C3;
    2A1  :  7D;
    2A2  :  D8;
    2A3  :  75;
    2A4  :  7A;
    2A5  :  27;
    2A6  :  D6;
    2A7  :  1D;
    2A8  :  A3;
    2A9  :  BD;
    2AA  :  C5;
    2AB  :  86;
    2AC  :  24;
    2AD  :  96;
    2AE  :  9E;
    2AF  :  6A;
    2B0  :  18;
    2B1  :  31;
    2B2  :  E3;
    2B3  :  12;
    2B4  :  62;
    2B5  :  40;
    2B6  :  6A;
    2B7  :  1A;
    2B8  :  32;
    2B9  :  9D;
    2BA  :  43;
    2BB  :  7F;
    2BC  :  ED;
    2BD  :  D7;
    2BE  :  02;
    2BF  :  41;
    2C0  :  61;
    2C1  :  87;
    2C2  :  37;
    2C3  :  8F;
    2C4  :  D5;
    2C5  :  02;
    2C6  :  52;
    2C7  :  95;
    2C8  :  80;
    2C9  :  28;
    2CA  :  4E;
    2CB  :  17;
    2CC  :  B1;
    2CD  :  C0;
    2CE  :  16;
    2CF  :  0D;
    2D0  :  30;
    2D1  :  5F;
    2D2  :  36;
    2D3  :  80;
    2D4  :  82;
    2D5  :  95;
    2D6  :  94;
    2D7  :  7E;
    2D8  :  16;
    2D9  :  52;
    2DA  :  C3;
    2DB  :  FE;
    2DC  :  5A;
    2DD  :  0F;
    2DE  :  96;
    2DF  :  CD;
    2E0  :  03;
    2E1  :  D4;
    2E2  :  10;
    2E3  :  9D;
    2E4  :  5F;
    2E5  :  F8;
    2E6  :  28;
    2E7  :  5F;
    2E8  :  ED;
    2E9  :  47;
    2EA  :  B8;
    2EB  :  0D;
    2EC  :  F7;
    2ED  :  0F;
    2EE  :  0C;
    2EF  :  52;
    2F0  :  55;
    2F1  :  92;
    2F2  :  1D;
    2F3  :  FE;
    2F4  :  D3;
    2F5  :  77;
    2F6  :  BD;
    2F7  :  4A;
    2F8  :  FA;
    2F9  :  0C;
    2FA  :  0C;
    2FB  :  97;
    2FC  :  93;
    2FD  :  9E;
    2FE  :  5F;
    2FF  :  0C;
END;
